
**** 05/22/23 12:02:11 **** PSpice 22.1.0 (9 December 2022) *** ID# 0 ********

 ** Profile: "SCHEMATIC1-montecarlo_timp"  [ C:\Miruna\PROIECT_ORCAD\Proiect-PSpiceFiles\SCHEMATIC1\montecarlo_timp.sim ] 


 ****     CIRCUIT DESCRIPTION


******************************************************************************




** Creating circuit file "montecarlo_timp.cir" 
** WARNING: THIS AUTOMATICALLY GENERATED FILE MAY BE OVERWRITTEN BY SUBSEQUENT SIMULATIONS

*Libraries: 
* Profile Libraries :
* Local Libraries :
.LIB "../../../dportocala.lib" 
* From [PSPICE NETLIST] section of C:\SPB_Data\cdssetup\OrCAD_PSpice\22.1.0\PSpice.ini file:
.lib "nom.lib" 

*Analysis directives: 
.TRAN  0 10ms 0 
.MC 50 TRAN V([OUT]) YMAX OUTPUT ALL SEED=200 
.OPTIONS ADVCONV
.PROBE64 V(alias(*)) I(alias(*)) W(alias(*)) D(alias(*)) NOISE(alias(*)) 
.INC "..\SCHEMATIC1.net" 



**** INCLUDING SCHEMATIC1.net ****
* source PROIECT
Q_Q1         N00177 N00075 0 Q2N2222
Q_Q2         N00075 N00075 0 Q2N2222
R_R3         N00075 VCC R_R3 38.8k TC=0,0 
.model        R_R3 RES R=1 DEV=0.5% TC1=0 TC2=0
R_Rsenzor         N00177 VCC  {r} TC=0,0 
R_R5         N00390 N00477 R_R5 1k TC=0,0 
.model        R_R5 RES R=1 DEV=0.5% TC1=0 TC2=0
R_R6         0 N00477 R_R6 1.78k TC=0,0 
.model        R_R6 RES R=1 DEV=0.5% TC1=0 TC2=0
R_R7         N00618 N00681 R_R7 1.78k TC=0,0 
.model        R_R7 RES R=1 DEV=0.5% TC1=0 TC2=0
R_R8         REF1 N00618 R_R8 1k TC=0,0 
.model        R_R8 RES R=1 DEV=0.5% TC1=0 TC2=0
R_R9         REF2 N00786 R_R9 1k TC=0,0 
.model        R_R9 RES R=1 DEV=0.5% TC1=0 TC2=0
R_R10         N00786 OUT R_R10 2.84k TC=0,0 
.model        R_R10 RES R=1 DEV=0.5% TC1=0 TC2=0
R_R11         OUT N01788 R_R11 816 TC=0,0 
.model        R_R11 RES R=1 DEV=0.5% TC1=0 TC2=0
Q_Q3         N01792 N01788 0 Q2N2222
R_R12         N02007 OUT R_R12 768 TC=0,0 
.model        R_R12 RES R=1 DEV=0.5% TC1=0 TC2=0
R_RL         N01792 VCC R_RL 464 TC=0,0 
.model        R_RL RES R=1 DEV=0.5% TC1=0 TC2=0
V_V1         VCC 0 17V
V_V2         -VCC 0 -17V
R_R14         N02701 VCC R_R14 1k TC=0,0 
.model        R_R14 RES R=1 DEV=0.5% TC1=0 TC2=0
R_R15         0 N02701 R_R15 156 TC=0,0 
.model        R_R15 RES R=1 DEV=0.5% TC1=0 TC2=0
R_R16         N03121 VCC R_R16 665 TC=0,0 
.model        R_R16 RES R=1 DEV=0.5% TC1=0 TC2=0
R_R17         0 N03121 R_R17 1k TC=0,0 
.model        R_R17 RES R=1 DEV=0.5% TC1=0 TC2=0
D_Dportocala         N02007 0 Dportocala 
X_U4A         N00786 N00681 VCC -VCC OUT LM358
X_U4B         N00477 N00618 VCC -VCC N00681 LM358
X_U5A         N00177 N00390 VCC -VCC N00390 LM358
X_U5B         N03121 REF2 VCC -VCC REF2 LM358
X_U6A         N02701 REF1 VCC -VCC REF1 LM358
D_Dportocala1         N12559 0 Dportocala 
V_V3         N12559 0 4V
.PARAM  r=15k

**** RESUMING montecarlo_timp.cir ****
.END

**** 05/22/23 12:02:11 **** PSpice 22.1.0 (9 December 2022) *** ID# 0 ********

 ** Profile: "SCHEMATIC1-montecarlo_timp"  [ C:\Miruna\PROIECT_ORCAD\Proiect-PSpiceFiles\SCHEMATIC1\montecarlo_timp.sim ] 


 ****     Diode MODEL PARAMETERS


******************************************************************************




               Dportocala      X_U4A.x_lm358.dx 
          IS   10.013000E-21  800.000000E-18 
           N    1.6367                       
          RS    9.5575          1            


               X_U4A.x_lm358.dy 
          IS  800.000000E-18 
          RS    1.000000E-03 
         CJO   10.000000E-12 


               X_U4B.x_lm358.dx 
          IS  800.000000E-18 
          RS    1            


               X_U4B.x_lm358.dy 
          IS  800.000000E-18 
          RS    1.000000E-03 
         CJO   10.000000E-12 


               X_U5A.x_lm358.dx 
          IS  800.000000E-18 
          RS    1            


               X_U5A.x_lm358.dy 
          IS  800.000000E-18 
          RS    1.000000E-03 
         CJO   10.000000E-12 


               X_U5B.x_lm358.dx 
          IS  800.000000E-18 
          RS    1            


               X_U5B.x_lm358.dy 
          IS  800.000000E-18 
          RS    1.000000E-03 
         CJO   10.000000E-12 


               X_U6A.x_lm358.dx 
          IS  800.000000E-18 
          RS    1            


               X_U6A.x_lm358.dy 
          IS  800.000000E-18 
          RS    1.000000E-03 
         CJO   10.000000E-12 


**** 05/22/23 12:02:11 **** PSpice 22.1.0 (9 December 2022) *** ID# 0 ********

 ** Profile: "SCHEMATIC1-montecarlo_timp"  [ C:\Miruna\PROIECT_ORCAD\Proiect-PSpiceFiles\SCHEMATIC1\montecarlo_timp.sim ] 


 ****     BJT MODEL PARAMETERS


******************************************************************************




               Q2N2222         X_U4A.x_lm358.qx 
               NPN             PNP             
       LEVEL    1               1            
          IS   14.340000E-15  800.000000E-18 
          BF  255.9           166.7          
          NF    1               1            
         VAF   74.03                         
         IKF     .2847                       
         ISE   14.340000E-15                 
          NE    1.307                        
          BR    6.092           1            
          NR    1               1            
         ISS    0               0            
          RB   10                            
          RE    0               0            
          RC    1               0            
         CJE   22.010000E-12    0            
         VJE     .75             .75         
         MJE     .377                        
         CJC    7.306000E-12    0            
         VJC     .75             .75         
         MJC     .3416           .33         
        XCJC    1               1            
         CJS    0               0            
         VJS     .75             .75         
          TF  411.100000E-12                 
         XTF    3                            
         VTF    1.7                          
         ITF     .6                          
          TR   46.910000E-09                 
         XTB    1.5                          
          KF    0               0            
          AF    1               1            
          CN    2.42            2.2          
           D     .87             .52         


               X_U4B.x_lm358.qx 
               PNP             
       LEVEL    1            
          IS  800.000000E-18 
          BF  166.7          
          NF    1            
          BR    1            
          NR    1            
         ISS    0            
          RE    0            
          RC    0            
         CJE    0            
         VJE     .75         
         CJC    0            
         VJC     .75         
         MJC     .33         
        XCJC    1            
         CJS    0            
         VJS     .75         
          KF    0            
          AF    1            
          CN    2.2          
           D     .52         


               X_U5A.x_lm358.qx 
               PNP             
       LEVEL    1            
          IS  800.000000E-18 
          BF  166.7          
          NF    1            
          BR    1            
          NR    1            
         ISS    0            
          RE    0            
          RC    0            
         CJE    0            
         VJE     .75         
         CJC    0            
         VJC     .75         
         MJC     .33         
        XCJC    1            
         CJS    0            
         VJS     .75         
          KF    0            
          AF    1            
          CN    2.2          
           D     .52         


               X_U5B.x_lm358.qx 
               PNP             
       LEVEL    1            
          IS  800.000000E-18 
          BF  166.7          
          NF    1            
          BR    1            
          NR    1            
         ISS    0            
          RE    0            
          RC    0            
         CJE    0            
         VJE     .75         
         CJC    0            
         VJC     .75         
         MJC     .33         
        XCJC    1            
         CJS    0            
         VJS     .75         
          KF    0            
          AF    1            
          CN    2.2          
           D     .52         


               X_U6A.x_lm358.qx 
               PNP             
       LEVEL    1            
          IS  800.000000E-18 
          BF  166.7          
          NF    1            
          BR    1            
          NR    1            
         ISS    0            
          RE    0            
          RC    0            
         CJE    0            
         VJE     .75         
         CJC    0            
         VJC     .75         
         MJC     .33         
        XCJC    1            
         CJS    0            
         VJS     .75         
          KF    0            
          AF    1            
          CN    2.2          
           D     .52         


**** 05/22/23 12:02:11 **** PSpice 22.1.0 (9 December 2022) *** ID# 0 ********

 ** Profile: "SCHEMATIC1-montecarlo_timp"  [ C:\Miruna\PROIECT_ORCAD\Proiect-PSpiceFiles\SCHEMATIC1\montecarlo_timp.sim ] 


 ****     Resistor MODEL PARAMETERS


******************************************************************************




               R_R3            R_R5            R_R6            R_R7            
           R    1               1               1               1            


               R_R8            R_R9            R_R10           R_R11           
           R    1               1               1               1            


               R_R12           R_RL            R_R14           R_R15           
           R    1               1               1               1            


               R_R16           R_R17           
           R    1               1            


**** 05/22/23 12:02:11 **** PSpice 22.1.0 (9 December 2022) *** ID# 0 ********

 ** Profile: "SCHEMATIC1-montecarlo_timp"  [ C:\Miruna\PROIECT_ORCAD\Proiect-PSpiceFiles\SCHEMATIC1\montecarlo_timp.sim ] 


 ****     Current Controlled Switch MODEL PARAMETERS


******************************************************************************




               X_U4A.x_lm358.sw2 
         RON    1            
        ROFF   10.000000E+06 
         ION    0            
        IOFF   -1.000000E-06 


               X_U4A.x_lm358.sw1 
         RON    1            
        ROFF   10.000000E+06 
         ION   -1.000000E-06 
        IOFF    0            


               X_U4A.x_lm358.sw3 
         RON    1            
        ROFF   10.000000E+06 
         ION   -1.000000E-06 
        IOFF    0            


               X_U4A.x_lm358.sw4 
         RON    1            
        ROFF   10.000000E+06 
         ION    0            
        IOFF   -1.000000E-06 


               X_U4B.x_lm358.sw2 
         RON    1            
        ROFF   10.000000E+06 
         ION    0            
        IOFF   -1.000000E-06 


               X_U4B.x_lm358.sw1 
         RON    1            
        ROFF   10.000000E+06 
         ION   -1.000000E-06 
        IOFF    0            


               X_U4B.x_lm358.sw3 
         RON    1            
        ROFF   10.000000E+06 
         ION   -1.000000E-06 
        IOFF    0            


               X_U4B.x_lm358.sw4 
         RON    1            
        ROFF   10.000000E+06 
         ION    0            
        IOFF   -1.000000E-06 


               X_U5A.x_lm358.sw2 
         RON    1            
        ROFF   10.000000E+06 
         ION    0            
        IOFF   -1.000000E-06 


               X_U5A.x_lm358.sw1 
         RON    1            
        ROFF   10.000000E+06 
         ION   -1.000000E-06 
        IOFF    0            


               X_U5A.x_lm358.sw3 
         RON    1            
        ROFF   10.000000E+06 
         ION   -1.000000E-06 
        IOFF    0            


               X_U5A.x_lm358.sw4 
         RON    1            
        ROFF   10.000000E+06 
         ION    0            
        IOFF   -1.000000E-06 


               X_U5B.x_lm358.sw2 
         RON    1            
        ROFF   10.000000E+06 
         ION    0            
        IOFF   -1.000000E-06 


               X_U5B.x_lm358.sw1 
         RON    1            
        ROFF   10.000000E+06 
         ION   -1.000000E-06 
        IOFF    0            


               X_U5B.x_lm358.sw3 
         RON    1            
        ROFF   10.000000E+06 
         ION   -1.000000E-06 
        IOFF    0            


               X_U5B.x_lm358.sw4 
         RON    1            
        ROFF   10.000000E+06 
         ION    0            
        IOFF   -1.000000E-06 


               X_U6A.x_lm358.sw2 
         RON    1            
        ROFF   10.000000E+06 
         ION    0            
        IOFF   -1.000000E-06 


               X_U6A.x_lm358.sw1 
         RON    1            
        ROFF   10.000000E+06 
         ION   -1.000000E-06 
        IOFF    0            


               X_U6A.x_lm358.sw3 
         RON    1            
        ROFF   10.000000E+06 
         ION   -1.000000E-06 
        IOFF    0            


               X_U6A.x_lm358.sw4 
         RON    1            
        ROFF   10.000000E+06 
         ION    0            
        IOFF   -1.000000E-06 


**** 05/22/23 12:02:11 **** PSpice 22.1.0 (9 December 2022) *** ID# 0 ********

 ** Profile: "SCHEMATIC1-montecarlo_timp"  [ C:\Miruna\PROIECT_ORCAD\Proiect-PSpiceFiles\SCHEMATIC1\montecarlo_timp.sim ] 


 ****     INITIAL TRANSIENT SOLUTION       TEMPERATURE =   27.000 DEG C

                      MONTE CARLO NOMINAL

******************************************************************************



 NODE   VOLTAGE     NODE   VOLTAGE     NODE   VOLTAGE     NODE   VOLTAGE


(  OUT)  -16.9890  (  VCC)   17.0000  ( -VCC)  -17.0000  ( REF1)    2.2932      

( REF2)   10.2070  (N00075)     .6232 (N00177)    9.9737 (N00390)    9.9702     

(N00477)    6.3838 (N00618)    6.3814 (N00681)   13.6580 (N00786)    3.1244     

(N01788)  -16.9890 (N01792)   17.0000 (N02007)  -16.9890 (N02701)    2.2941     

(N03121)   10.2100 (N12559)    4.0000 (X_U4A.x_lm358.6)    1.4942               

(X_U4A.x_lm358.7)  -19.0200           (X_U4A.x_lm358.8)  -19.0200               

(X_U4A.x_lm358.9)    0.0000           (X_U4A.x_lm358.a)     .0406               

(X_U4A.x_lm358.b)  -16.9590           (X_U4B.x_lm358.6)    -.0026               

(X_U4B.x_lm358.7)   13.8630           (X_U4B.x_lm358.8)   13.8630               

(X_U4B.x_lm358.9)    0.0000           (X_U4B.x_lm358.a)   16.9960               

(X_U4B.x_lm358.b)    -.0041           (X_U5A.x_lm358.6)    -.0019               

(X_U5A.x_lm358.7)   10.1490           (X_U5A.x_lm358.8)   10.1490               

(X_U5A.x_lm358.9)    0.0000           (X_U5A.x_lm358.a)   16.9960               

(X_U5A.x_lm358.b)    -.0036           (X_U5B.x_lm358.6)    -.0020               

(X_U5B.x_lm358.7)   10.5610           (X_U5B.x_lm358.8)   10.5610               

(X_U5B.x_lm358.9)    0.0000           (X_U5B.x_lm358.a)   16.9930               

(X_U5B.x_lm358.b)    -.0071           (X_U6A.x_lm358.6)-373.7E-06               

(X_U6A.x_lm358.7)    2.0888           (X_U6A.x_lm358.8)    2.0888               

(X_U6A.x_lm358.9)    0.0000           (X_U6A.x_lm358.a)     .0041               

(X_U6A.x_lm358.b)  -16.9960           (X_U4A.x_lm358.10)    3.7630              

(X_U4A.x_lm358.11)  -17.0000          (X_U4A.x_lm358.12)  -16.9220              

(X_U4A.x_lm358.13)    3.7630          (X_U4A.x_lm358.14)    3.7357              

(X_U4A.x_lm358.53)   15.5000          (X_U4A.x_lm358.54)  -16.1780              

(X_U4A.x_lm358.90)  -40.6100          (X_U4A.x_lm358.91)   40.0000              

(X_U4A.x_lm358.92)  -40.0000          (X_U4A.x_lm358.99)    0.0000              

(X_U4B.x_lm358.10)    6.9890          (X_U4B.x_lm358.11)  -16.9600              

(X_U4B.x_lm358.12)  -16.9630          (X_U4B.x_lm358.13)    6.9751              

(X_U4B.x_lm358.14)    6.9759          (X_U4B.x_lm358.53)   15.5000              

(X_U4B.x_lm358.54)  -16.1780          (X_U4B.x_lm358.90)    4.0882              

(X_U4B.x_lm358.91)   40.0000          (X_U4B.x_lm358.92)  -40.0000              

(X_U4B.x_lm358.99)    0.0000          (X_U5A.x_lm358.10)   10.5780              

(X_U5A.x_lm358.11)  -16.9610          (X_U5A.x_lm358.12)  -16.9640              

(X_U5A.x_lm358.13)   10.5640          (X_U5A.x_lm358.14)   10.5650              

(X_U5A.x_lm358.53)   15.5000          (X_U5A.x_lm358.54)  -16.1780              

(X_U5A.x_lm358.90)    3.5863          (X_U5A.x_lm358.91)   40.0000              

(X_U5A.x_lm358.92)  -40.0000          (X_U5A.x_lm358.99)    0.0000              

(X_U5B.x_lm358.10)   10.8140          (X_U5B.x_lm358.11)  -16.9610              

(X_U5B.x_lm358.12)  -16.9640          (X_U5B.x_lm358.13)   10.8000              

(X_U5B.x_lm358.14)   10.8010          (X_U5B.x_lm358.53)   15.5000              

(X_U5B.x_lm358.54)  -16.1780          (X_U5B.x_lm358.90)    7.0821              

(X_U5B.x_lm358.91)   40.0000          (X_U5B.x_lm358.92)  -40.0000              

(X_U5B.x_lm358.99)    0.0000          (X_U6A.x_lm358.10)    2.9009              

(X_U6A.x_lm358.11)  -16.9600          (X_U6A.x_lm358.12)  -16.9610              

(X_U6A.x_lm358.13)    2.8870          (X_U6A.x_lm358.14)    2.8873              

(X_U6A.x_lm358.53)   15.5000          (X_U6A.x_lm358.54)  -16.1780              

(X_U6A.x_lm358.90)   -4.0883          (X_U6A.x_lm358.91)   40.0000              

(X_U6A.x_lm358.92)  -40.0000          (X_U6A.x_lm358.99)    0.0000          




    VOLTAGE SOURCE CURRENTS
    NAME         CURRENT

    V_V1        -5.937E-02
    V_V2         2.997E-02
    V_V3        -2.212E-01
    X_U4A.x_lm358.vb   1.494E-05
    X_U4A.x_lm358.vc   3.249E-11
    X_U4A.x_lm358.ve  -3.353E-02
    X_U4A.x_lm358.vlim  -4.061E-02
    X_U4A.x_lm358.vlp  -8.061E-11
    X_U4A.x_lm358.vln   1.414E-05
    X_U4B.x_lm358.vb  -2.633E-08
    X_U4B.x_lm358.vc   1.842E-12
    X_U4B.x_lm358.ve   3.205E-11
    X_U4B.x_lm358.vlim   4.088E-03
    X_U4B.x_lm358.vlp  -3.591E-11
    X_U4B.x_lm358.vln  -4.409E-11
    X_U5A.x_lm358.vb  -1.931E-08
    X_U5A.x_lm358.vc   5.531E-12
    X_U5A.x_lm358.ve   2.836E-11
    X_U5A.x_lm358.vlim   3.586E-03
    X_U5A.x_lm358.vlp  -3.641E-11
    X_U5A.x_lm358.vln  -4.359E-11
    X_U5B.x_lm358.vb  -2.025E-08
    X_U5B.x_lm358.vc   5.294E-12
    X_U5B.x_lm358.ve   2.860E-11
    X_U5B.x_lm358.vlim   7.082E-03
    X_U5B.x_lm358.vlp  -3.292E-11
    X_U5B.x_lm358.vln  -4.709E-11
    X_U6A.x_lm358.vb  -3.737E-09
    X_U6A.x_lm358.vc   1.321E-11
    X_U6A.x_lm358.ve   2.069E-11
    X_U6A.x_lm358.vlim  -4.088E-03
    X_U6A.x_lm358.vlp  -4.409E-11
    X_U6A.x_lm358.vln  -3.592E-11

    TOTAL POWER DISSIPATION   2.43E+00  WATTS


**** 05/22/23 12:02:11 **** PSpice 22.1.0 (9 December 2022) *** ID# 0 ********

 ** Profile: "SCHEMATIC1-montecarlo_timp"  [ C:\Miruna\PROIECT_ORCAD\Proiect-PSpiceFiles\SCHEMATIC1\montecarlo_timp.sim ] 


 ****     INITIAL TRANSIENT SOLUTION       TEMPERATURE =   27.000 DEG C

                      MONTE CARLO PASS 2

******************************************************************************



 NODE   VOLTAGE     NODE   VOLTAGE     NODE   VOLTAGE     NODE   VOLTAGE


(  OUT)  -16.9890  (  VCC)   17.0000  ( -VCC)  -17.0000  ( REF1)    2.2996      

( REF2)   10.2110  (N00075)     .6231 (N00177)    9.9964 (N00390)    9.9929     

(N00477)    6.3992 (N00618)    6.3968 (N00681)   13.7530 (N00786)    3.1577     

(N01788)  -16.9890 (N01792)   17.0000 (N02007)  -16.9890 (N02701)    2.3005     

(N03121)   10.2150 (N12559)    4.0000 (X_U4A.x_lm358.6)    1.4941               

(X_U4A.x_lm358.7)  -19.0200           (X_U4A.x_lm358.8)  -19.0200               

(X_U4A.x_lm358.9)    0.0000           (X_U4A.x_lm358.a)     .0406               

(X_U4A.x_lm358.b)  -16.9590           (X_U4B.x_lm358.6)    -.0027               

(X_U4B.x_lm358.7)   13.9590           (X_U4B.x_lm358.8)   13.9590               

(X_U4B.x_lm358.9)    0.0000           (X_U4B.x_lm358.a)   16.9960               

(X_U4B.x_lm358.b)    -.0041           (X_U5A.x_lm358.6)    -.0019               

(X_U5A.x_lm358.7)   10.1720           (X_U5A.x_lm358.8)   10.1720               

(X_U5A.x_lm358.9)    0.0000           (X_U5A.x_lm358.a)   16.9960               

(X_U5A.x_lm358.b)    -.0036           (X_U5B.x_lm358.6)    -.0020               

(X_U5B.x_lm358.7)   10.5640           (X_U5B.x_lm358.8)   10.5640               

(X_U5B.x_lm358.9)    0.0000           (X_U5B.x_lm358.a)   16.9930               

(X_U5B.x_lm358.b)    -.0071           (X_U6A.x_lm358.6)-374.5E-06               

(X_U6A.x_lm358.7)    2.0939           (X_U6A.x_lm358.8)    2.0939               

(X_U6A.x_lm358.9)    0.0000           (X_U6A.x_lm358.a)     .0041               

(X_U6A.x_lm358.b)  -16.9960           (X_U4A.x_lm358.10)    3.7963              

(X_U4A.x_lm358.11)  -17.0000          (X_U4A.x_lm358.12)  -16.9220              

(X_U4A.x_lm358.13)    3.7963          (X_U4A.x_lm358.14)    3.7690              

(X_U4A.x_lm358.53)   15.5000          (X_U4A.x_lm358.54)  -16.1780              

(X_U4A.x_lm358.90)  -40.6100          (X_U4A.x_lm358.91)   40.0000              

(X_U4A.x_lm358.92)  -40.0000          (X_U4A.x_lm358.99)    0.0000              

(X_U4B.x_lm358.10)    7.0043          (X_U4B.x_lm358.11)  -16.9600              

(X_U4B.x_lm358.12)  -16.9630          (X_U4B.x_lm358.13)    6.9905              

(X_U4B.x_lm358.14)    6.9913          (X_U4B.x_lm358.53)   15.5000              

(X_U4B.x_lm358.54)  -16.1780          (X_U4B.x_lm358.90)    4.1140              

(X_U4B.x_lm358.91)   40.0000          (X_U4B.x_lm358.92)  -40.0000              

(X_U4B.x_lm358.99)    0.0000          (X_U5A.x_lm358.10)   10.6000              

(X_U5A.x_lm358.11)  -16.9610          (X_U5A.x_lm358.12)  -16.9640              

(X_U5A.x_lm358.13)   10.5860          (X_U5A.x_lm358.14)   10.5880              

(X_U5A.x_lm358.53)   15.5000          (X_U5A.x_lm358.54)  -16.1780              

(X_U5A.x_lm358.90)    3.5910          (X_U5A.x_lm358.91)   40.0000              

(X_U5A.x_lm358.92)  -40.0000          (X_U5A.x_lm358.99)    0.0000              

(X_U5B.x_lm358.10)   10.8180          (X_U5B.x_lm358.11)  -16.9610              

(X_U5B.x_lm358.12)  -16.9640          (X_U5B.x_lm358.13)   10.8050              

(X_U5B.x_lm358.14)   10.8060          (X_U5B.x_lm358.53)   15.5000              

(X_U5B.x_lm358.54)  -16.1780          (X_U5B.x_lm358.90)    7.0639              

(X_U5B.x_lm358.91)   40.0000          (X_U5B.x_lm358.92)  -40.0000              

(X_U5B.x_lm358.99)    0.0000          (X_U6A.x_lm358.10)    2.9073              

(X_U6A.x_lm358.11)  -16.9600          (X_U6A.x_lm358.12)  -16.9610              

(X_U6A.x_lm358.13)    2.8934          (X_U6A.x_lm358.14)    2.8937              

(X_U6A.x_lm358.53)   15.5000          (X_U6A.x_lm358.54)  -16.1780              

(X_U6A.x_lm358.90)   -4.1141          (X_U6A.x_lm358.91)   40.0000              

(X_U6A.x_lm358.92)  -40.0000          (X_U6A.x_lm358.99)    0.0000          




    VOLTAGE SOURCE CURRENTS
    NAME         CURRENT

    V_V1        -5.937E-02
    V_V2         2.998E-02
    V_V3        -2.212E-01
    X_U4A.x_lm358.vb   1.494E-05
    X_U4A.x_lm358.vc   3.249E-11
    X_U4A.x_lm358.ve  -3.355E-02
    X_U4A.x_lm358.vlim  -4.061E-02
    X_U4A.x_lm358.vlp  -8.061E-11
    X_U4A.x_lm358.vln   1.414E-05
    X_U4B.x_lm358.vb  -2.651E-08
    X_U4B.x_lm358.vc   1.748E-12
    X_U4B.x_lm358.ve   3.215E-11
    X_U4B.x_lm358.vlim   4.114E-03
    X_U4B.x_lm358.vlp  -3.589E-11
    X_U4B.x_lm358.vln  -4.412E-11
    X_U5A.x_lm358.vb  -1.935E-08
    X_U5A.x_lm358.vc   5.508E-12
    X_U5A.x_lm358.ve   2.839E-11
    X_U5A.x_lm358.vlim   3.591E-03
    X_U5A.x_lm358.vlp  -3.641E-11
    X_U5A.x_lm358.vln  -4.360E-11
    X_U5B.x_lm358.vb  -2.026E-08
    X_U5B.x_lm358.vc   5.290E-12
    X_U5B.x_lm358.ve   2.860E-11
    X_U5B.x_lm358.vlim   7.064E-03
    X_U5B.x_lm358.vlp  -3.294E-11
    X_U5B.x_lm358.vln  -4.707E-11
    X_U6A.x_lm358.vb  -3.745E-09
    X_U6A.x_lm358.vc   1.320E-11
    X_U6A.x_lm358.ve   2.069E-11
    X_U6A.x_lm358.vlim  -4.114E-03
    X_U6A.x_lm358.vlp  -4.411E-11
    X_U6A.x_lm358.vln  -3.589E-11

    TOTAL POWER DISSIPATION   2.43E+00  WATTS


**** 05/22/23 12:02:11 **** PSpice 22.1.0 (9 December 2022) *** ID# 0 ********

 ** Profile: "SCHEMATIC1-montecarlo_timp"  [ C:\Miruna\PROIECT_ORCAD\Proiect-PSpiceFiles\SCHEMATIC1\montecarlo_timp.sim ] 


 ****     INITIAL TRANSIENT SOLUTION       TEMPERATURE =   27.000 DEG C

                      MONTE CARLO PASS 3

******************************************************************************



 NODE   VOLTAGE     NODE   VOLTAGE     NODE   VOLTAGE     NODE   VOLTAGE


(  OUT)  -16.9890  (  VCC)   17.0000  ( -VCC)  -17.0000  ( REF1)    2.2880      

( REF2)   10.2040  (N00075)     .6232 (N00177)    9.9586 (N00390)    9.9550     

(N00477)    6.3706 (N00618)    6.3682 (N00681)   13.6380 (N00786)    3.1105     

(N01788)  -16.9890 (N01792)   17.0000 (N02007)  -16.9890 (N02701)    2.2890     

(N03121)   10.2080 (N12559)    4.0000 (X_U4A.x_lm358.6)    1.4942               

(X_U4A.x_lm358.7)  -19.0200           (X_U4A.x_lm358.8)  -19.0200               

(X_U4A.x_lm358.9)    0.0000           (X_U4A.x_lm358.a)     .0406               

(X_U4A.x_lm358.b)  -16.9590           (X_U4B.x_lm358.6)    -.0026               

(X_U4B.x_lm358.7)   13.8420           (X_U4B.x_lm358.8)   13.8420               

(X_U4B.x_lm358.9)    0.0000           (X_U4B.x_lm358.a)   16.9960               

(X_U4B.x_lm358.b)    -.0041           (X_U5A.x_lm358.6)    -.0019               

(X_U5A.x_lm358.7)   10.1350           (X_U5A.x_lm358.8)   10.1350               

(X_U5A.x_lm358.9)    0.0000           (X_U5A.x_lm358.a)   16.9960               

(X_U5A.x_lm358.b)    -.0036           (X_U5B.x_lm358.6)    -.0020               

(X_U5B.x_lm358.7)   10.5580           (X_U5B.x_lm358.8)   10.5580               

(X_U5B.x_lm358.9)    0.0000           (X_U5B.x_lm358.a)   16.9930               

(X_U5B.x_lm358.b)    -.0071           (X_U6A.x_lm358.6)-372.8E-06               

(X_U6A.x_lm358.7)    2.0837           (X_U6A.x_lm358.8)    2.0837               

(X_U6A.x_lm358.9)    0.0000           (X_U6A.x_lm358.a)     .0041               

(X_U6A.x_lm358.b)  -16.9960           (X_U4A.x_lm358.10)    3.7491              

(X_U4A.x_lm358.11)  -17.0000          (X_U4A.x_lm358.12)  -16.9220              

(X_U4A.x_lm358.13)    3.7491          (X_U4A.x_lm358.14)    3.7218              

(X_U4A.x_lm358.53)   15.5000          (X_U4A.x_lm358.54)  -16.1780              

(X_U4A.x_lm358.90)  -40.6100          (X_U4A.x_lm358.91)   40.0000              

(X_U4A.x_lm358.92)  -40.0000          (X_U4A.x_lm358.99)    0.0000              

(X_U4B.x_lm358.10)    6.9758          (X_U4B.x_lm358.11)  -16.9600              

(X_U4B.x_lm358.12)  -16.9630          (X_U4B.x_lm358.13)    6.9620              

(X_U4B.x_lm358.14)    6.9628          (X_U4B.x_lm358.53)   15.5000              

(X_U4B.x_lm358.54)  -16.1780          (X_U4B.x_lm358.90)    4.0857              

(X_U4B.x_lm358.91)   40.0000          (X_U4B.x_lm358.92)  -40.0000              

(X_U4B.x_lm358.99)    0.0000          (X_U5A.x_lm358.10)   10.5620              

(X_U5A.x_lm358.11)  -16.9610          (X_U5A.x_lm358.12)  -16.9640              

(X_U5A.x_lm358.13)   10.5490          (X_U5A.x_lm358.14)   10.5500              

(X_U5A.x_lm358.53)   15.5000          (X_U5A.x_lm358.54)  -16.1780              

(X_U5A.x_lm358.90)    3.5914          (X_U5A.x_lm358.91)   40.0000              

(X_U5A.x_lm358.92)  -40.0000          (X_U5A.x_lm358.99)    0.0000              

(X_U5B.x_lm358.10)   10.8110          (X_U5B.x_lm358.11)  -16.9610              

(X_U5B.x_lm358.12)  -16.9640          (X_U5B.x_lm358.13)   10.7980              

(X_U5B.x_lm358.14)   10.7990          (X_U5B.x_lm358.53)   15.5000              

(X_U5B.x_lm358.54)  -16.1780          (X_U5B.x_lm358.90)    7.0846              

(X_U5B.x_lm358.91)   40.0000          (X_U5B.x_lm358.92)  -40.0000              

(X_U5B.x_lm358.99)    0.0000          (X_U6A.x_lm358.10)    2.8957              

(X_U6A.x_lm358.11)  -16.9600          (X_U6A.x_lm358.12)  -16.9610              

(X_U6A.x_lm358.13)    2.8818          (X_U6A.x_lm358.14)    2.8822              

(X_U6A.x_lm358.53)   15.5000          (X_U6A.x_lm358.54)  -16.1780              

(X_U6A.x_lm358.90)   -4.0858          (X_U6A.x_lm358.91)   40.0000              

(X_U6A.x_lm358.92)  -40.0000          (X_U6A.x_lm358.99)    0.0000          




    VOLTAGE SOURCE CURRENTS
    NAME         CURRENT

    V_V1        -5.928E-02
    V_V2         2.997E-02
    V_V3        -2.212E-01
    X_U4A.x_lm358.vb   1.494E-05
    X_U4A.x_lm358.vc   3.249E-11
    X_U4A.x_lm358.ve  -3.353E-02
    X_U4A.x_lm358.vlim  -4.061E-02
    X_U4A.x_lm358.vlp  -8.061E-11
    X_U4A.x_lm358.vln   1.414E-05
    X_U4B.x_lm358.vb  -2.629E-08
    X_U4B.x_lm358.vc   1.863E-12
    X_U4B.x_lm358.ve   3.203E-11
    X_U4B.x_lm358.vlim   4.086E-03
    X_U4B.x_lm358.vlp  -3.592E-11
    X_U4B.x_lm358.vln  -4.409E-11
    X_U5A.x_lm358.vb  -1.928E-08
    X_U5A.x_lm358.vc   5.546E-12
    X_U5A.x_lm358.ve   2.835E-11
    X_U5A.x_lm358.vlim   3.591E-03
    X_U5A.x_lm358.vlp  -3.641E-11
    X_U5A.x_lm358.vln  -4.360E-11
    X_U5B.x_lm358.vb  -2.025E-08
    X_U5B.x_lm358.vc   5.297E-12
    X_U5B.x_lm358.ve   2.860E-11
    X_U5B.x_lm358.vlim   7.085E-03
    X_U5B.x_lm358.vlp  -3.292E-11
    X_U5B.x_lm358.vln  -4.709E-11
    X_U6A.x_lm358.vb  -3.728E-09
    X_U6A.x_lm358.vc   1.321E-11
    X_U6A.x_lm358.ve   2.068E-11
    X_U6A.x_lm358.vlim  -4.086E-03
    X_U6A.x_lm358.vlp  -4.409E-11
    X_U6A.x_lm358.vln  -3.592E-11

    TOTAL POWER DISSIPATION   2.43E+00  WATTS


**** 05/22/23 12:02:11 **** PSpice 22.1.0 (9 December 2022) *** ID# 0 ********

 ** Profile: "SCHEMATIC1-montecarlo_timp"  [ C:\Miruna\PROIECT_ORCAD\Proiect-PSpiceFiles\SCHEMATIC1\montecarlo_timp.sim ] 


 ****     INITIAL TRANSIENT SOLUTION       TEMPERATURE =   27.000 DEG C

                      MONTE CARLO PASS 4

******************************************************************************



 NODE   VOLTAGE     NODE   VOLTAGE     NODE   VOLTAGE     NODE   VOLTAGE


(  OUT)  -16.9890  (  VCC)   17.0000  ( -VCC)  -17.0000  ( REF1)    2.2843      

( REF2)   10.1940  (N00075)     .6231 (N00177)    9.9775 (N00390)    9.9739     

(N00477)    6.3984 (N00618)    6.3960 (N00681)   13.7150 (N00786)    3.1149     

(N01788)  -16.9890 (N01792)   17.0000 (N02007)  -16.9890 (N02701)    2.2852     

(N03121)   10.1970 (N12559)    4.0000 (X_U4A.x_lm358.6)    1.4942               

(X_U4A.x_lm358.7)  -19.0200           (X_U4A.x_lm358.8)  -19.0200               

(X_U4A.x_lm358.9)    0.0000           (X_U4A.x_lm358.a)     .0406               

(X_U4A.x_lm358.b)  -16.9590           (X_U4B.x_lm358.6)    -.0026               

(X_U4B.x_lm358.7)   13.9200           (X_U4B.x_lm358.8)   13.9200               

(X_U4B.x_lm358.9)    0.0000           (X_U4B.x_lm358.a)   16.9960               

(X_U4B.x_lm358.b)    -.0041           (X_U5A.x_lm358.6)    -.0019               

(X_U5A.x_lm358.7)   10.1530           (X_U5A.x_lm358.8)   10.1530               

(X_U5A.x_lm358.9)    0.0000           (X_U5A.x_lm358.a)   16.9960               

(X_U5A.x_lm358.b)    -.0036           (X_U5B.x_lm358.6)    -.0020               

(X_U5B.x_lm358.7)   10.5470           (X_U5B.x_lm358.8)   10.5470               

(X_U5B.x_lm358.9)    0.0000           (X_U5B.x_lm358.a)   16.9930               

(X_U5B.x_lm358.b)    -.0071           (X_U6A.x_lm358.6)-372.0E-06               

(X_U6A.x_lm358.7)    2.0797           (X_U6A.x_lm358.8)    2.0797               

(X_U6A.x_lm358.9)    0.0000           (X_U6A.x_lm358.a)     .0041               

(X_U6A.x_lm358.b)  -16.9960           (X_U4A.x_lm358.10)    3.7535              

(X_U4A.x_lm358.11)  -17.0000          (X_U4A.x_lm358.12)  -16.9220              

(X_U4A.x_lm358.13)    3.7535          (X_U4A.x_lm358.14)    3.7262              

(X_U4A.x_lm358.53)   15.5000          (X_U4A.x_lm358.54)  -16.1780              

(X_U4A.x_lm358.90)  -40.6100          (X_U4A.x_lm358.91)   40.0000              

(X_U4A.x_lm358.92)  -40.0000          (X_U4A.x_lm358.99)    0.0000              

(X_U4B.x_lm358.10)    7.0035          (X_U4B.x_lm358.11)  -16.9600              

(X_U4B.x_lm358.12)  -16.9630          (X_U4B.x_lm358.13)    6.9897              

(X_U4B.x_lm358.14)    6.9905          (X_U4B.x_lm358.53)   15.5000              

(X_U4B.x_lm358.54)  -16.1780          (X_U4B.x_lm358.90)    4.0922              

(X_U4B.x_lm358.91)   40.0000          (X_U4B.x_lm358.92)  -40.0000              

(X_U4B.x_lm358.99)    0.0000          (X_U5A.x_lm358.10)   10.5810              

(X_U5A.x_lm358.11)  -16.9610          (X_U5A.x_lm358.12)  -16.9640              

(X_U5A.x_lm358.13)   10.5680          (X_U5A.x_lm358.14)   10.5690              

(X_U5A.x_lm358.53)   15.5000          (X_U5A.x_lm358.54)  -16.1780              

(X_U5A.x_lm358.90)    3.5865          (X_U5A.x_lm358.91)   40.0000              

(X_U5A.x_lm358.92)  -40.0000          (X_U5A.x_lm358.99)    0.0000              

(X_U5B.x_lm358.10)   10.8010          (X_U5B.x_lm358.11)  -16.9610              

(X_U5B.x_lm358.12)  -16.9640          (X_U5B.x_lm358.13)   10.7870              

(X_U5B.x_lm358.14)   10.7880          (X_U5B.x_lm358.53)   15.5000              

(X_U5B.x_lm358.54)  -16.1780          (X_U5B.x_lm358.90)    7.0693              

(X_U5B.x_lm358.91)   40.0000          (X_U5B.x_lm358.92)  -40.0000              

(X_U5B.x_lm358.99)    0.0000          (X_U6A.x_lm358.10)    2.8920              

(X_U6A.x_lm358.11)  -16.9600          (X_U6A.x_lm358.12)  -16.9610              

(X_U6A.x_lm358.13)    2.8781          (X_U6A.x_lm358.14)    2.8784              

(X_U6A.x_lm358.53)   15.5000          (X_U6A.x_lm358.54)  -16.1780              

(X_U6A.x_lm358.90)   -4.0923          (X_U6A.x_lm358.91)   40.0000              

(X_U6A.x_lm358.92)  -40.0000          (X_U6A.x_lm358.99)    0.0000          




    VOLTAGE SOURCE CURRENTS
    NAME         CURRENT

    V_V1        -5.934E-02
    V_V2         2.996E-02
    V_V3        -2.212E-01
    X_U4A.x_lm358.vb   1.494E-05
    X_U4A.x_lm358.vc   3.249E-11
    X_U4A.x_lm358.ve  -3.354E-02
    X_U4A.x_lm358.vlim  -4.061E-02
    X_U4A.x_lm358.vlp  -8.061E-11
    X_U4A.x_lm358.vln   1.414E-05
    X_U4B.x_lm358.vb  -2.644E-08
    X_U4B.x_lm358.vc   1.785E-12
    X_U4B.x_lm358.ve   3.211E-11
    X_U4B.x_lm358.vlim   4.092E-03
    X_U4B.x_lm358.vlp  -3.591E-11
    X_U4B.x_lm358.vln  -4.410E-11
    X_U5A.x_lm358.vb  -1.931E-08
    X_U5A.x_lm358.vc   5.527E-12
    X_U5A.x_lm358.ve   2.837E-11
    X_U5A.x_lm358.vlim   3.586E-03
    X_U5A.x_lm358.vlp  -3.641E-11
    X_U5A.x_lm358.vln  -4.359E-11
    X_U5B.x_lm358.vb  -2.023E-08
    X_U5B.x_lm358.vc   5.307E-12
    X_U5B.x_lm358.ve   2.859E-11
    X_U5B.x_lm358.vlim   7.069E-03
    X_U5B.x_lm358.vlp  -3.293E-11
    X_U5B.x_lm358.vln  -4.707E-11
    X_U6A.x_lm358.vb  -3.720E-09
    X_U6A.x_lm358.vc   1.322E-11
    X_U6A.x_lm358.ve   2.068E-11
    X_U6A.x_lm358.vlim  -4.092E-03
    X_U6A.x_lm358.vlp  -4.409E-11
    X_U6A.x_lm358.vln  -3.591E-11

    TOTAL POWER DISSIPATION   2.43E+00  WATTS


**** 05/22/23 12:02:11 **** PSpice 22.1.0 (9 December 2022) *** ID# 0 ********

 ** Profile: "SCHEMATIC1-montecarlo_timp"  [ C:\Miruna\PROIECT_ORCAD\Proiect-PSpiceFiles\SCHEMATIC1\montecarlo_timp.sim ] 


 ****     INITIAL TRANSIENT SOLUTION       TEMPERATURE =   27.000 DEG C

                      MONTE CARLO PASS 5

******************************************************************************



 NODE   VOLTAGE     NODE   VOLTAGE     NODE   VOLTAGE     NODE   VOLTAGE


(  OUT)  -16.9890  (  VCC)   17.0000  ( -VCC)  -17.0000  ( REF1)    2.2800      

( REF2)   10.2190  (N00075)     .6231 (N00177)    9.9968 (N00390)    9.9933     

(N00477)    6.4106 (N00618)    6.4082 (N00681)   13.7020 (N00786)    3.1140     

(N01788)  -16.9890 (N01792)   17.0000 (N02007)  -16.9890 (N02701)    2.2810     

(N03121)   10.2220 (N12559)    4.0000 (X_U4A.x_lm358.6)    1.4942               

(X_U4A.x_lm358.7)  -19.0200           (X_U4A.x_lm358.8)  -19.0200               

(X_U4A.x_lm358.9)    0.0000           (X_U4A.x_lm358.a)     .0406               

(X_U4A.x_lm358.b)  -16.9590           (X_U4B.x_lm358.6)    -.0026               

(X_U4B.x_lm358.7)   13.9080           (X_U4B.x_lm358.8)   13.9080               

(X_U4B.x_lm358.9)    0.0000           (X_U4B.x_lm358.a)   16.9960               

(X_U4B.x_lm358.b)    -.0041           (X_U5A.x_lm358.6)    -.0019               

(X_U5A.x_lm358.7)   10.1730           (X_U5A.x_lm358.8)   10.1730               

(X_U5A.x_lm358.9)    0.0000           (X_U5A.x_lm358.a)   16.9960               

(X_U5A.x_lm358.b)    -.0036           (X_U5B.x_lm358.6)    -.0020               

(X_U5B.x_lm358.7)   10.5730           (X_U5B.x_lm358.8)   10.5730               

(X_U5B.x_lm358.9)    0.0000           (X_U5B.x_lm358.a)   16.9930               

(X_U5B.x_lm358.b)    -.0071           (X_U6A.x_lm358.6)-370.9E-06               

(X_U6A.x_lm358.7)    2.0746           (X_U6A.x_lm358.8)    2.0746               

(X_U6A.x_lm358.9)    0.0000           (X_U6A.x_lm358.a)     .0041               

(X_U6A.x_lm358.b)  -16.9960           (X_U4A.x_lm358.10)    3.7527              

(X_U4A.x_lm358.11)  -17.0000          (X_U4A.x_lm358.12)  -16.9220              

(X_U4A.x_lm358.13)    3.7527          (X_U4A.x_lm358.14)    3.7253              

(X_U4A.x_lm358.53)   15.5000          (X_U4A.x_lm358.54)  -16.1780              

(X_U4A.x_lm358.90)  -40.6100          (X_U4A.x_lm358.91)   40.0000              

(X_U4A.x_lm358.92)  -40.0000          (X_U4A.x_lm358.99)    0.0000              

(X_U4B.x_lm358.10)    7.0158          (X_U4B.x_lm358.11)  -16.9600              

(X_U4B.x_lm358.12)  -16.9630          (X_U4B.x_lm358.13)    7.0019              

(X_U4B.x_lm358.14)    7.0028          (X_U4B.x_lm358.53)   15.5000              

(X_U4B.x_lm358.54)  -16.1780          (X_U4B.x_lm358.90)    4.1090              

(X_U4B.x_lm358.91)   40.0000          (X_U4B.x_lm358.92)  -40.0000              

(X_U4B.x_lm358.99)    0.0000          (X_U5A.x_lm358.10)   10.6010              

(X_U5A.x_lm358.11)  -16.9610          (X_U5A.x_lm358.12)  -16.9640              

(X_U5A.x_lm358.13)   10.5870          (X_U5A.x_lm358.14)   10.5880              

(X_U5A.x_lm358.53)   15.5000          (X_U5A.x_lm358.54)  -16.1780              

(X_U5A.x_lm358.90)    3.5938          (X_U5A.x_lm358.91)   40.0000              

(X_U5A.x_lm358.92)  -40.0000          (X_U5A.x_lm358.99)    0.0000              

(X_U5B.x_lm358.10)   10.8260          (X_U5B.x_lm358.11)  -16.9610              

(X_U5B.x_lm358.12)  -16.9640          (X_U5B.x_lm358.13)   10.8120              

(X_U5B.x_lm358.14)   10.8130          (X_U5B.x_lm358.53)   15.5000              

(X_U5B.x_lm358.54)  -16.1780          (X_U5B.x_lm358.90)    7.0946              

(X_U5B.x_lm358.91)   40.0000          (X_U5B.x_lm358.92)  -40.0000              

(X_U5B.x_lm358.99)    0.0000          (X_U6A.x_lm358.10)    2.8877              

(X_U6A.x_lm358.11)  -16.9600          (X_U6A.x_lm358.12)  -16.9610              

(X_U6A.x_lm358.13)    2.8738          (X_U6A.x_lm358.14)    2.8742              

(X_U6A.x_lm358.53)   15.5000          (X_U6A.x_lm358.54)  -16.1780              

(X_U6A.x_lm358.90)   -4.1091          (X_U6A.x_lm358.91)   40.0000              

(X_U6A.x_lm358.92)  -40.0000          (X_U6A.x_lm358.99)    0.0000          




    VOLTAGE SOURCE CURRENTS
    NAME         CURRENT

    V_V1        -5.937E-02
    V_V2         3.000E-02
    V_V3        -2.212E-01
    X_U4A.x_lm358.vb   1.494E-05
    X_U4A.x_lm358.vc   3.249E-11
    X_U4A.x_lm358.ve  -3.352E-02
    X_U4A.x_lm358.vlim  -4.061E-02
    X_U4A.x_lm358.vlp  -8.061E-11
    X_U4A.x_lm358.vln   1.414E-05
    X_U4B.x_lm358.vb  -2.642E-08
    X_U4B.x_lm358.vc   1.799E-12
    X_U4B.x_lm358.ve   3.210E-11
    X_U4B.x_lm358.vlim   4.109E-03
    X_U4B.x_lm358.vlp  -3.589E-11
    X_U4B.x_lm358.vln  -4.411E-11
    X_U5A.x_lm358.vb  -1.935E-08
    X_U5A.x_lm358.vc   5.508E-12
    X_U5A.x_lm358.ve   2.839E-11
    X_U5A.x_lm358.vlim   3.594E-03
    X_U5A.x_lm358.vlp  -3.641E-11
    X_U5A.x_lm358.vln  -4.360E-11
    X_U5B.x_lm358.vb  -2.028E-08
    X_U5B.x_lm358.vc   5.282E-12
    X_U5B.x_lm358.ve   2.861E-11
    X_U5B.x_lm358.vlim   7.095E-03
    X_U5B.x_lm358.vlp  -3.291E-11
    X_U5B.x_lm358.vln  -4.710E-11
    X_U6A.x_lm358.vb  -3.709E-09
    X_U6A.x_lm358.vc   1.322E-11
    X_U6A.x_lm358.ve   2.067E-11
    X_U6A.x_lm358.vlim  -4.109E-03
    X_U6A.x_lm358.vlp  -4.411E-11
    X_U6A.x_lm358.vln  -3.590E-11

    TOTAL POWER DISSIPATION   2.43E+00  WATTS


**** 05/22/23 12:02:11 **** PSpice 22.1.0 (9 December 2022) *** ID# 0 ********

 ** Profile: "SCHEMATIC1-montecarlo_timp"  [ C:\Miruna\PROIECT_ORCAD\Proiect-PSpiceFiles\SCHEMATIC1\montecarlo_timp.sim ] 


 ****     INITIAL TRANSIENT SOLUTION       TEMPERATURE =   27.000 DEG C

                      MONTE CARLO PASS 6

******************************************************************************



 NODE   VOLTAGE     NODE   VOLTAGE     NODE   VOLTAGE     NODE   VOLTAGE


(  OUT)  -16.9890  (  VCC)   17.0000  ( -VCC)  -17.0000  ( REF1)    2.2873      

( REF2)   10.2150  (N00075)     .6232 (N00177)    9.9563 (N00390)    9.9527     

(N00477)    6.3792 (N00618)    6.3768 (N00681)   13.6750 (N00786)    3.1329     

(N01788)  -16.9890 (N01792)   17.0000 (N02007)  -16.9890 (N02701)    2.2883     

(N03121)   10.2190 (N12559)    4.0000 (X_U4A.x_lm358.6)    1.4942               

(X_U4A.x_lm358.7)  -19.0200           (X_U4A.x_lm358.8)  -19.0200               

(X_U4A.x_lm358.9)    0.0000           (X_U4A.x_lm358.a)     .0406               

(X_U4A.x_lm358.b)  -16.9590           (X_U4B.x_lm358.6)    -.0026               

(X_U4B.x_lm358.7)   13.8800           (X_U4B.x_lm358.8)   13.8800               

(X_U4B.x_lm358.9)    0.0000           (X_U4B.x_lm358.a)   16.9960               

(X_U4B.x_lm358.b)    -.0041           (X_U5A.x_lm358.6)    -.0019               

(X_U5A.x_lm358.7)   10.1320           (X_U5A.x_lm358.8)   10.1320               

(X_U5A.x_lm358.9)    0.0000           (X_U5A.x_lm358.a)   16.9960               

(X_U5A.x_lm358.b)    -.0036           (X_U5B.x_lm358.6)    -.0020               

(X_U5B.x_lm358.7)   10.5680           (X_U5B.x_lm358.8)   10.5680               

(X_U5B.x_lm358.9)    0.0000           (X_U5B.x_lm358.a)   16.9930               

(X_U5B.x_lm358.b)    -.0071           (X_U6A.x_lm358.6)-372.4E-06               

(X_U6A.x_lm358.7)    2.0824           (X_U6A.x_lm358.8)    2.0824               

(X_U6A.x_lm358.9)    0.0000           (X_U6A.x_lm358.a)     .0041               

(X_U6A.x_lm358.b)  -16.9960           (X_U4A.x_lm358.10)    3.7715              

(X_U4A.x_lm358.11)  -17.0000          (X_U4A.x_lm358.12)  -16.9220              

(X_U4A.x_lm358.13)    3.7715          (X_U4A.x_lm358.14)    3.7442              

(X_U4A.x_lm358.53)   15.5000          (X_U4A.x_lm358.54)  -16.1780              

(X_U4A.x_lm358.90)  -40.6100          (X_U4A.x_lm358.91)   40.0000              

(X_U4A.x_lm358.92)  -40.0000          (X_U4A.x_lm358.99)    0.0000              

(X_U4B.x_lm358.10)    6.9844          (X_U4B.x_lm358.11)  -16.9600              

(X_U4B.x_lm358.12)  -16.9630          (X_U4B.x_lm358.13)    6.9705              

(X_U4B.x_lm358.14)    6.9714          (X_U4B.x_lm358.53)   15.5000              

(X_U4B.x_lm358.54)  -16.1780          (X_U4B.x_lm358.90)    4.0992              

(X_U4B.x_lm358.91)   40.0000          (X_U4B.x_lm358.92)  -40.0000              

(X_U4B.x_lm358.99)    0.0000          (X_U5A.x_lm358.10)   10.5600              

(X_U5A.x_lm358.11)  -16.9610          (X_U5A.x_lm358.12)  -16.9640              

(X_U5A.x_lm358.13)   10.5460          (X_U5A.x_lm358.14)   10.5480              

(X_U5A.x_lm358.53)   15.5000          (X_U5A.x_lm358.54)  -16.1780              

(X_U5A.x_lm358.90)    3.5812          (X_U5A.x_lm358.91)   40.0000              

(X_U5A.x_lm358.92)  -40.0000          (X_U5A.x_lm358.99)    0.0000              

(X_U5B.x_lm358.10)   10.8230          (X_U5B.x_lm358.11)  -16.9610              

(X_U5B.x_lm358.12)  -16.9640          (X_U5B.x_lm358.13)   10.8090              

(X_U5B.x_lm358.14)   10.8100          (X_U5B.x_lm358.53)   15.5000              

(X_U5B.x_lm358.54)  -16.1780          (X_U5B.x_lm358.90)    7.0551              

(X_U5B.x_lm358.91)   40.0000          (X_U5B.x_lm358.92)  -40.0000              

(X_U5B.x_lm358.99)    0.0000          (X_U6A.x_lm358.10)    2.8950              

(X_U6A.x_lm358.11)  -16.9600          (X_U6A.x_lm358.12)  -16.9610              

(X_U6A.x_lm358.13)    2.8811          (X_U6A.x_lm358.14)    2.8815              

(X_U6A.x_lm358.53)   15.5000          (X_U6A.x_lm358.54)  -16.1780              

(X_U6A.x_lm358.90)   -4.0993          (X_U6A.x_lm358.91)   40.0000              

(X_U6A.x_lm358.92)  -40.0000          (X_U6A.x_lm358.99)    0.0000          




    VOLTAGE SOURCE CURRENTS
    NAME         CURRENT

    V_V1        -5.935E-02
    V_V2         2.995E-02
    V_V3        -2.212E-01
    X_U4A.x_lm358.vb   1.494E-05
    X_U4A.x_lm358.vc   3.249E-11
    X_U4A.x_lm358.ve  -3.356E-02
    X_U4A.x_lm358.vlim  -4.061E-02
    X_U4A.x_lm358.vlp  -8.061E-11
    X_U4A.x_lm358.vln   1.414E-05
    X_U4B.x_lm358.vb  -2.636E-08
    X_U4B.x_lm358.vc   1.826E-12
    X_U4B.x_lm358.ve   3.207E-11
    X_U4B.x_lm358.vlim   4.099E-03
    X_U4B.x_lm358.vlp  -3.590E-11
    X_U4B.x_lm358.vln  -4.410E-11
    X_U5A.x_lm358.vb  -1.927E-08
    X_U5A.x_lm358.vc   5.548E-12
    X_U5A.x_lm358.ve   2.835E-11
    X_U5A.x_lm358.vlim   3.581E-03
    X_U5A.x_lm358.vlp  -3.642E-11
    X_U5A.x_lm358.vln  -4.359E-11
    X_U5B.x_lm358.vb  -2.027E-08
    X_U5B.x_lm358.vc   5.286E-12
    X_U5B.x_lm358.ve   2.861E-11
    X_U5B.x_lm358.vlim   7.055E-03
    X_U5B.x_lm358.vlp  -3.295E-11
    X_U5B.x_lm358.vln  -4.706E-11
    X_U6A.x_lm358.vb  -3.724E-09
    X_U6A.x_lm358.vc   1.321E-11
    X_U6A.x_lm358.ve   2.068E-11
    X_U6A.x_lm358.vlim  -4.099E-03
    X_U6A.x_lm358.vlp  -4.410E-11
    X_U6A.x_lm358.vln  -3.591E-11

    TOTAL POWER DISSIPATION   2.43E+00  WATTS


**** 05/22/23 12:02:11 **** PSpice 22.1.0 (9 December 2022) *** ID# 0 ********

 ** Profile: "SCHEMATIC1-montecarlo_timp"  [ C:\Miruna\PROIECT_ORCAD\Proiect-PSpiceFiles\SCHEMATIC1\montecarlo_timp.sim ] 


 ****     INITIAL TRANSIENT SOLUTION       TEMPERATURE =   27.000 DEG C

                      MONTE CARLO PASS 7

******************************************************************************



 NODE   VOLTAGE     NODE   VOLTAGE     NODE   VOLTAGE     NODE   VOLTAGE


(  OUT)  -16.9890  (  VCC)   17.0000  ( -VCC)  -17.0000  ( REF1)    2.2977      

( REF2)   10.1950  (N00075)     .6231 (N00177)    9.9918 (N00390)    9.9882     

(N00477)    6.4013 (N00618)    6.3989 (N00681)   13.6530 (N00786)    3.0850     

(N01788)  -16.9890 (N01792)   17.0000 (N02007)  -16.9890 (N02701)    2.2987     

(N03121)   10.1980 (N12559)    4.0000 (X_U4A.x_lm358.6)    1.4942               

(X_U4A.x_lm358.7)  -19.0200           (X_U4A.x_lm358.8)  -19.0200               

(X_U4A.x_lm358.9)    0.0000           (X_U4A.x_lm358.a)     .0406               

(X_U4A.x_lm358.b)  -16.9590           (X_U4B.x_lm358.6)    -.0026               

(X_U4B.x_lm358.7)   13.8580           (X_U4B.x_lm358.8)   13.8580               

(X_U4B.x_lm358.9)    0.0000           (X_U4B.x_lm358.a)   16.9960               

(X_U4B.x_lm358.b)    -.0041           (X_U5A.x_lm358.6)    -.0019               

(X_U5A.x_lm358.7)   10.1680           (X_U5A.x_lm358.8)   10.1680               

(X_U5A.x_lm358.9)    0.0000           (X_U5A.x_lm358.a)   16.9960               

(X_U5A.x_lm358.b)    -.0036           (X_U5B.x_lm358.6)    -.0020               

(X_U5B.x_lm358.7)   10.5490           (X_U5B.x_lm358.8)   10.5490               

(X_U5B.x_lm358.9)    0.0000           (X_U5B.x_lm358.a)   16.9930               

(X_U5B.x_lm358.b)    -.0071           (X_U6A.x_lm358.6)-374.5E-06               

(X_U6A.x_lm358.7)    2.0930           (X_U6A.x_lm358.8)    2.0930               

(X_U6A.x_lm358.9)    0.0000           (X_U6A.x_lm358.a)     .0041               

(X_U6A.x_lm358.b)  -16.9960           (X_U4A.x_lm358.10)    3.7236              

(X_U4A.x_lm358.11)  -17.0000          (X_U4A.x_lm358.12)  -16.9220              

(X_U4A.x_lm358.13)    3.7236          (X_U4A.x_lm358.14)    3.6963              

(X_U4A.x_lm358.53)   15.5000          (X_U4A.x_lm358.54)  -16.1780              

(X_U4A.x_lm358.90)  -40.6100          (X_U4A.x_lm358.91)   40.0000              

(X_U4A.x_lm358.92)  -40.0000          (X_U4A.x_lm358.99)    0.0000              

(X_U4B.x_lm358.10)    7.0065          (X_U4B.x_lm358.11)  -16.9600              

(X_U4B.x_lm358.12)  -16.9630          (X_U4B.x_lm358.13)    6.9927              

(X_U4B.x_lm358.14)    6.9935          (X_U4B.x_lm358.53)   15.5000              

(X_U4B.x_lm358.54)  -16.1780          (X_U4B.x_lm358.90)    4.0947              

(X_U4B.x_lm358.91)   40.0000          (X_U4B.x_lm358.92)  -40.0000              

(X_U4B.x_lm358.99)    0.0000          (X_U5A.x_lm358.10)   10.5960              

(X_U5A.x_lm358.11)  -16.9610          (X_U5A.x_lm358.12)  -16.9640              

(X_U5A.x_lm358.13)   10.5820          (X_U5A.x_lm358.14)   10.5830              

(X_U5A.x_lm358.53)   15.5000          (X_U5A.x_lm358.54)  -16.1780              

(X_U5A.x_lm358.90)    3.5941          (X_U5A.x_lm358.91)   40.0000              

(X_U5A.x_lm358.92)  -40.0000          (X_U5A.x_lm358.99)    0.0000              

(X_U5B.x_lm358.10)   10.8020          (X_U5B.x_lm358.11)  -16.9610              

(X_U5B.x_lm358.12)  -16.9640          (X_U5B.x_lm358.13)   10.7880              

(X_U5B.x_lm358.14)   10.7900          (X_U5B.x_lm358.53)   15.5000              

(X_U5B.x_lm358.54)  -16.1780          (X_U5B.x_lm358.90)    7.0859              

(X_U5B.x_lm358.91)   40.0000          (X_U5B.x_lm358.92)  -40.0000              

(X_U5B.x_lm358.99)    0.0000          (X_U6A.x_lm358.10)    2.9054              

(X_U6A.x_lm358.11)  -16.9600          (X_U6A.x_lm358.12)  -16.9610              

(X_U6A.x_lm358.13)    2.8915          (X_U6A.x_lm358.14)    2.8919              

(X_U6A.x_lm358.53)   15.5000          (X_U6A.x_lm358.54)  -16.1780              

(X_U6A.x_lm358.90)   -4.0948          (X_U6A.x_lm358.91)   40.0000              

(X_U6A.x_lm358.92)  -40.0000          (X_U6A.x_lm358.99)    0.0000          




    VOLTAGE SOURCE CURRENTS
    NAME         CURRENT

    V_V1        -5.938E-02
    V_V2         2.998E-02
    V_V3        -2.212E-01
    X_U4A.x_lm358.vb   1.494E-05
    X_U4A.x_lm358.vc   3.249E-11
    X_U4A.x_lm358.ve  -3.352E-02
    X_U4A.x_lm358.vlim  -4.061E-02
    X_U4A.x_lm358.vlp  -8.061E-11
    X_U4A.x_lm358.vln   1.414E-05
    X_U4B.x_lm358.vb  -2.632E-08
    X_U4B.x_lm358.vc   1.848E-12
    X_U4B.x_lm358.ve   3.205E-11
    X_U4B.x_lm358.vlim   4.095E-03
    X_U4B.x_lm358.vlp  -3.591E-11
    X_U4B.x_lm358.vln  -4.410E-11
    X_U5A.x_lm358.vb  -1.934E-08
    X_U5A.x_lm358.vc   5.513E-12
    X_U5A.x_lm358.ve   2.838E-11
    X_U5A.x_lm358.vlim   3.594E-03
    X_U5A.x_lm358.vlp  -3.641E-11
    X_U5A.x_lm358.vln  -4.360E-11
    X_U5B.x_lm358.vb  -2.023E-08
    X_U5B.x_lm358.vc   5.306E-12
    X_U5B.x_lm358.ve   2.859E-11
    X_U5B.x_lm358.vlim   7.086E-03
    X_U5B.x_lm358.vlp  -3.292E-11
    X_U5B.x_lm358.vln  -4.709E-11
    X_U6A.x_lm358.vb  -3.745E-09
    X_U6A.x_lm358.vc   1.320E-11
    X_U6A.x_lm358.ve   2.069E-11
    X_U6A.x_lm358.vlim  -4.095E-03
    X_U6A.x_lm358.vlp  -4.410E-11
    X_U6A.x_lm358.vln  -3.591E-11

    TOTAL POWER DISSIPATION   2.43E+00  WATTS


**** 05/22/23 12:02:11 **** PSpice 22.1.0 (9 December 2022) *** ID# 0 ********

 ** Profile: "SCHEMATIC1-montecarlo_timp"  [ C:\Miruna\PROIECT_ORCAD\Proiect-PSpiceFiles\SCHEMATIC1\montecarlo_timp.sim ] 


 ****     INITIAL TRANSIENT SOLUTION       TEMPERATURE =   27.000 DEG C

                      MONTE CARLO PASS 8

******************************************************************************



 NODE   VOLTAGE     NODE   VOLTAGE     NODE   VOLTAGE     NODE   VOLTAGE


(  OUT)  -16.9890  (  VCC)   17.0000  ( -VCC)  -17.0000  ( REF1)    2.2965      

( REF2)   10.2390  (N00075)     .6231 (N00177)    9.9997 (N00390)    9.9961     

(N00477)    6.3981 (N00618)    6.3957 (N00681)   13.6730 (N00786)    3.1568     

(N01788)  -16.9890 (N01792)   17.0000 (N02007)  -16.9890 (N02701)    2.2974     

(N03121)   10.2430 (N12559)    4.0000 (X_U4A.x_lm358.6)    1.4941               

(X_U4A.x_lm358.7)  -19.0200           (X_U4A.x_lm358.8)  -19.0200               

(X_U4A.x_lm358.9)    0.0000           (X_U4A.x_lm358.a)     .0406               

(X_U4A.x_lm358.b)  -16.9590           (X_U4B.x_lm358.6)    -.0026               

(X_U4B.x_lm358.7)   13.8770           (X_U4B.x_lm358.8)   13.8770               

(X_U4B.x_lm358.9)    0.0000           (X_U4B.x_lm358.a)   16.9960               

(X_U4B.x_lm358.b)    -.0041           (X_U5A.x_lm358.6)    -.0019               

(X_U5A.x_lm358.7)   10.1760           (X_U5A.x_lm358.8)   10.1760               

(X_U5A.x_lm358.9)    0.0000           (X_U5A.x_lm358.a)   16.9960               

(X_U5A.x_lm358.b)    -.0036           (X_U5B.x_lm358.6)    -.0020               

(X_U5B.x_lm358.7)   10.5920           (X_U5B.x_lm358.8)   10.5920               

(X_U5B.x_lm358.9)    0.0000           (X_U5B.x_lm358.a)   16.9930               

(X_U5B.x_lm358.b)    -.0071           (X_U6A.x_lm358.6)-374.4E-06               

(X_U6A.x_lm358.7)    2.0924           (X_U6A.x_lm358.8)    2.0924               

(X_U6A.x_lm358.9)    0.0000           (X_U6A.x_lm358.a)     .0041               

(X_U6A.x_lm358.b)  -16.9960           (X_U4A.x_lm358.10)    3.7955              

(X_U4A.x_lm358.11)  -17.0000          (X_U4A.x_lm358.12)  -16.9220              

(X_U4A.x_lm358.13)    3.7955          (X_U4A.x_lm358.14)    3.7682              

(X_U4A.x_lm358.53)   15.5000          (X_U4A.x_lm358.54)  -16.1780              

(X_U4A.x_lm358.90)  -40.6100          (X_U4A.x_lm358.91)   40.0000              

(X_U4A.x_lm358.92)  -40.0000          (X_U4A.x_lm358.99)    0.0000              

(X_U4B.x_lm358.10)    7.0033          (X_U4B.x_lm358.11)  -16.9600              

(X_U4B.x_lm358.12)  -16.9630          (X_U4B.x_lm358.13)    6.9894              

(X_U4B.x_lm358.14)    6.9903          (X_U4B.x_lm358.53)   15.5000              

(X_U4B.x_lm358.54)  -16.1780          (X_U4B.x_lm358.90)    4.0822              

(X_U4B.x_lm358.91)   40.0000          (X_U4B.x_lm358.92)  -40.0000              

(X_U4B.x_lm358.99)    0.0000          (X_U5A.x_lm358.10)   10.6040              

(X_U5A.x_lm358.11)  -16.9610          (X_U5A.x_lm358.12)  -16.9640              

(X_U5A.x_lm358.13)   10.5900          (X_U5A.x_lm358.14)   10.5910              

(X_U5A.x_lm358.53)   15.5000          (X_U5A.x_lm358.54)  -16.1780              

(X_U5A.x_lm358.90)    3.5954          (X_U5A.x_lm358.91)   40.0000              

(X_U5A.x_lm358.92)  -40.0000          (X_U5A.x_lm358.99)    0.0000              

(X_U5B.x_lm358.10)   10.8460          (X_U5B.x_lm358.11)  -16.9610              

(X_U5B.x_lm358.12)  -16.9640          (X_U5B.x_lm358.13)   10.8330              

(X_U5B.x_lm358.14)   10.8340          (X_U5B.x_lm358.53)   15.5000              

(X_U5B.x_lm358.54)  -16.1780          (X_U5B.x_lm358.90)    7.0659              

(X_U5B.x_lm358.91)   40.0000          (X_U5B.x_lm358.92)  -40.0000              

(X_U5B.x_lm358.99)    0.0000          (X_U6A.x_lm358.10)    2.9042              

(X_U6A.x_lm358.11)  -16.9600          (X_U6A.x_lm358.12)  -16.9610              

(X_U6A.x_lm358.13)    2.8903          (X_U6A.x_lm358.14)    2.8906              

(X_U6A.x_lm358.53)   15.5000          (X_U6A.x_lm358.54)  -16.1780              

(X_U6A.x_lm358.90)   -4.0823          (X_U6A.x_lm358.91)   40.0000              

(X_U6A.x_lm358.92)  -40.0000          (X_U6A.x_lm358.99)    0.0000          




    VOLTAGE SOURCE CURRENTS
    NAME         CURRENT

    V_V1        -5.934E-02
    V_V2         2.995E-02
    V_V3        -2.212E-01
    X_U4A.x_lm358.vb   1.494E-05
    X_U4A.x_lm358.vc   3.249E-11
    X_U4A.x_lm358.ve  -3.354E-02
    X_U4A.x_lm358.vlim  -4.061E-02
    X_U4A.x_lm358.vlp  -8.061E-11
    X_U4A.x_lm358.vln   1.414E-05
    X_U4B.x_lm358.vb  -2.636E-08
    X_U4B.x_lm358.vc   1.828E-12
    X_U4B.x_lm358.ve   3.207E-11
    X_U4B.x_lm358.vlim   4.082E-03
    X_U4B.x_lm358.vlp  -3.592E-11
    X_U4B.x_lm358.vln  -4.409E-11
    X_U5A.x_lm358.vb  -1.936E-08
    X_U5A.x_lm358.vc   5.505E-12
    X_U5A.x_lm358.ve   2.839E-11
    X_U5A.x_lm358.vlim   3.595E-03
    X_U5A.x_lm358.vlp  -3.641E-11
    X_U5A.x_lm358.vln  -4.360E-11
    X_U5B.x_lm358.vb  -2.031E-08
    X_U5B.x_lm358.vc   5.262E-12
    X_U5B.x_lm358.ve   2.863E-11
    X_U5B.x_lm358.vlim   7.066E-03
    X_U5B.x_lm358.vlp  -3.293E-11
    X_U5B.x_lm358.vln  -4.707E-11
    X_U6A.x_lm358.vb  -3.744E-09
    X_U6A.x_lm358.vc   1.320E-11
    X_U6A.x_lm358.ve   2.069E-11
    X_U6A.x_lm358.vlim  -4.082E-03
    X_U6A.x_lm358.vlp  -4.408E-11
    X_U6A.x_lm358.vln  -3.592E-11

    TOTAL POWER DISSIPATION   2.43E+00  WATTS


**** 05/22/23 12:02:11 **** PSpice 22.1.0 (9 December 2022) *** ID# 0 ********

 ** Profile: "SCHEMATIC1-montecarlo_timp"  [ C:\Miruna\PROIECT_ORCAD\Proiect-PSpiceFiles\SCHEMATIC1\montecarlo_timp.sim ] 


 ****     INITIAL TRANSIENT SOLUTION       TEMPERATURE =   27.000 DEG C

                      MONTE CARLO PASS 9

******************************************************************************



 NODE   VOLTAGE     NODE   VOLTAGE     NODE   VOLTAGE     NODE   VOLTAGE


(  OUT)  -16.9890  (  VCC)   17.0000  ( -VCC)  -17.0000  ( REF1)    2.3010      

( REF2)   10.1690  (N00075)     .6232 (N00177)    9.9584 (N00390)    9.9548     

(N00477)    6.3620 (N00618)    6.3596 (N00681)   13.6090 (N00786)    3.0821     

(N01788)  -16.9890 (N01792)   17.0000 (N02007)  -16.9890 (N02701)    2.3019     

(N03121)   10.1730 (N12559)    4.0000 (X_U4A.x_lm358.6)    1.4943               

(X_U4A.x_lm358.7)  -19.0200           (X_U4A.x_lm358.8)  -19.0200               

(X_U4A.x_lm358.9)    0.0000           (X_U4A.x_lm358.a)     .0406               

(X_U4A.x_lm358.b)  -16.9590           (X_U4B.x_lm358.6)    -.0026               

(X_U4B.x_lm358.7)   13.8120           (X_U4B.x_lm358.8)   13.8120               

(X_U4B.x_lm358.9)    0.0000           (X_U4B.x_lm358.a)   16.9960               

(X_U4B.x_lm358.b)    -.0041           (X_U5A.x_lm358.6)    -.0019               

(X_U5A.x_lm358.7)   10.1340           (X_U5A.x_lm358.8)   10.1340               

(X_U5A.x_lm358.9)    0.0000           (X_U5A.x_lm358.a)   16.9960               

(X_U5A.x_lm358.b)    -.0036           (X_U5B.x_lm358.6)    -.0020               

(X_U5B.x_lm358.7)   10.5240           (X_U5B.x_lm358.8)   10.5240               

(X_U5B.x_lm358.9)    0.0000           (X_U5B.x_lm358.a)   16.9930               

(X_U5B.x_lm358.b)    -.0071           (X_U6A.x_lm358.6)-375.6E-06               

(X_U6A.x_lm358.7)    2.0980           (X_U6A.x_lm358.8)    2.0980               

(X_U6A.x_lm358.9)    0.0000           (X_U6A.x_lm358.a)     .0041               

(X_U6A.x_lm358.b)  -16.9960           (X_U4A.x_lm358.10)    3.7208              

(X_U4A.x_lm358.11)  -17.0000          (X_U4A.x_lm358.12)  -16.9220              

(X_U4A.x_lm358.13)    3.7208          (X_U4A.x_lm358.14)    3.6934              

(X_U4A.x_lm358.53)   15.5000          (X_U4A.x_lm358.54)  -16.1780              

(X_U4A.x_lm358.90)  -40.6100          (X_U4A.x_lm358.91)   40.0000              

(X_U4A.x_lm358.92)  -40.0000          (X_U4A.x_lm358.99)    0.0000              

(X_U4B.x_lm358.10)    6.9672          (X_U4B.x_lm358.11)  -16.9600              

(X_U4B.x_lm358.12)  -16.9630          (X_U4B.x_lm358.13)    6.9533              

(X_U4B.x_lm358.14)    6.9541          (X_U4B.x_lm358.53)   15.5000              

(X_U4B.x_lm358.54)  -16.1780          (X_U4B.x_lm358.90)    4.0594              

(X_U4B.x_lm358.91)   40.0000          (X_U4B.x_lm358.92)  -40.0000              

(X_U4B.x_lm358.99)    0.0000          (X_U5A.x_lm358.10)   10.5620              

(X_U5A.x_lm358.11)  -16.9610          (X_U5A.x_lm358.12)  -16.9640              

(X_U5A.x_lm358.13)   10.5480          (X_U5A.x_lm358.14)   10.5500              

(X_U5A.x_lm358.53)   15.5000          (X_U5A.x_lm358.54)  -16.1780              

(X_U5A.x_lm358.90)    3.5883          (X_U5A.x_lm358.91)   40.0000              

(X_U5A.x_lm358.92)  -40.0000          (X_U5A.x_lm358.99)    0.0000              

(X_U5B.x_lm358.10)   10.7770          (X_U5B.x_lm358.11)  -16.9610              

(X_U5B.x_lm358.12)  -16.9640          (X_U5B.x_lm358.13)   10.7630              

(X_U5B.x_lm358.14)   10.7640          (X_U5B.x_lm358.53)   15.5000              

(X_U5B.x_lm358.54)  -16.1780          (X_U5B.x_lm358.90)    7.0954              

(X_U5B.x_lm358.91)   40.0000          (X_U5B.x_lm358.92)  -40.0000              

(X_U5B.x_lm358.99)    0.0000          (X_U6A.x_lm358.10)    2.9087              

(X_U6A.x_lm358.11)  -16.9600          (X_U6A.x_lm358.12)  -16.9610              

(X_U6A.x_lm358.13)    2.8948          (X_U6A.x_lm358.14)    2.8951              

(X_U6A.x_lm358.53)   15.5000          (X_U6A.x_lm358.54)  -16.1780              

(X_U6A.x_lm358.90)   -4.0595          (X_U6A.x_lm358.91)   40.0000              

(X_U6A.x_lm358.92)  -40.0000          (X_U6A.x_lm358.99)    0.0000          




    VOLTAGE SOURCE CURRENTS
    NAME         CURRENT

    V_V1        -5.940E-02
    V_V2         2.995E-02
    V_V3        -2.212E-01
    X_U4A.x_lm358.vb   1.494E-05
    X_U4A.x_lm358.vc   3.249E-11
    X_U4A.x_lm358.ve  -3.351E-02
    X_U4A.x_lm358.vlim  -4.061E-02
    X_U4A.x_lm358.vlp  -8.061E-11
    X_U4A.x_lm358.vln   1.414E-05
    X_U4B.x_lm358.vb  -2.623E-08
    X_U4B.x_lm358.vc   1.892E-12
    X_U4B.x_lm358.ve   3.200E-11
    X_U4B.x_lm358.vlim   4.059E-03
    X_U4B.x_lm358.vlp  -3.594E-11
    X_U4B.x_lm358.vln  -4.406E-11
    X_U5A.x_lm358.vb  -1.928E-08
    X_U5A.x_lm358.vc   5.546E-12
    X_U5A.x_lm358.ve   2.835E-11
    X_U5A.x_lm358.vlim   3.588E-03
    X_U5A.x_lm358.vlp  -3.641E-11
    X_U5A.x_lm358.vln  -4.359E-11
    X_U5B.x_lm358.vb  -2.019E-08
    X_U5B.x_lm358.vc   5.331E-12
    X_U5B.x_lm358.ve   2.856E-11
    X_U5B.x_lm358.vlim   7.095E-03
    X_U5B.x_lm358.vlp  -3.291E-11
    X_U5B.x_lm358.vln  -4.710E-11
    X_U6A.x_lm358.vb  -3.756E-09
    X_U6A.x_lm358.vc   1.320E-11
    X_U6A.x_lm358.ve   2.069E-11
    X_U6A.x_lm358.vlim  -4.060E-03
    X_U6A.x_lm358.vlp  -4.406E-11
    X_U6A.x_lm358.vln  -3.594E-11

    TOTAL POWER DISSIPATION   2.43E+00  WATTS


**** 05/22/23 12:02:11 **** PSpice 22.1.0 (9 December 2022) *** ID# 0 ********

 ** Profile: "SCHEMATIC1-montecarlo_timp"  [ C:\Miruna\PROIECT_ORCAD\Proiect-PSpiceFiles\SCHEMATIC1\montecarlo_timp.sim ] 


 ****     INITIAL TRANSIENT SOLUTION       TEMPERATURE =   27.000 DEG C

                      MONTE CARLO PASS 10

******************************************************************************



 NODE   VOLTAGE     NODE   VOLTAGE     NODE   VOLTAGE     NODE   VOLTAGE


(  OUT)  -16.9890  (  VCC)   17.0000  ( -VCC)  -17.0000  ( REF1)    2.2926      

( REF2)   10.2130  (N00075)     .6231 (N00177)    9.9846 (N00390)    9.9810     

(N00477)    6.4035 (N00618)    6.4011 (N00681)   13.6560 (N00786)    3.1419     

(N01788)  -16.9890 (N01792)   17.0000 (N02007)  -16.9890 (N02701)    2.2936     

(N03121)   10.2170 (N12559)    4.0000 (X_U4A.x_lm358.6)    1.4942               

(X_U4A.x_lm358.7)  -19.0200           (X_U4A.x_lm358.8)  -19.0200               

(X_U4A.x_lm358.9)    0.0000           (X_U4A.x_lm358.a)     .0406               

(X_U4A.x_lm358.b)  -16.9590           (X_U4B.x_lm358.6)    -.0026               

(X_U4B.x_lm358.7)   13.8610           (X_U4B.x_lm358.8)   13.8610               

(X_U4B.x_lm358.9)    0.0000           (X_U4B.x_lm358.a)   16.9960               

(X_U4B.x_lm358.b)    -.0041           (X_U5A.x_lm358.6)    -.0019               

(X_U5A.x_lm358.7)   10.1610           (X_U5A.x_lm358.8)   10.1610               

(X_U5A.x_lm358.9)    0.0000           (X_U5A.x_lm358.a)   16.9960               

(X_U5A.x_lm358.b)    -.0036           (X_U5B.x_lm358.6)    -.0020               

(X_U5B.x_lm358.7)   10.5670           (X_U5B.x_lm358.8)   10.5670               

(X_U5B.x_lm358.9)    0.0000           (X_U5B.x_lm358.a)   16.9930               

(X_U5B.x_lm358.b)    -.0071           (X_U6A.x_lm358.6)-373.5E-06               

(X_U6A.x_lm358.7)    2.0880           (X_U6A.x_lm358.8)    2.0880               

(X_U6A.x_lm358.9)    0.0000           (X_U6A.x_lm358.a)     .0041               

(X_U6A.x_lm358.b)  -16.9960           (X_U4A.x_lm358.10)    3.7805              

(X_U4A.x_lm358.11)  -17.0000          (X_U4A.x_lm358.12)  -16.9220              

(X_U4A.x_lm358.13)    3.7805          (X_U4A.x_lm358.14)    3.7532              

(X_U4A.x_lm358.53)   15.5000          (X_U4A.x_lm358.54)  -16.1780              

(X_U4A.x_lm358.90)  -40.6100          (X_U4A.x_lm358.91)   40.0000              

(X_U4A.x_lm358.92)  -40.0000          (X_U4A.x_lm358.99)    0.0000              

(X_U4B.x_lm358.10)    7.0087          (X_U4B.x_lm358.11)  -16.9600              

(X_U4B.x_lm358.12)  -16.9630          (X_U4B.x_lm358.13)    6.9948              

(X_U4B.x_lm358.14)    6.9957          (X_U4B.x_lm358.53)   15.5000              

(X_U4B.x_lm358.54)  -16.1780          (X_U4B.x_lm358.90)    4.0933              

(X_U4B.x_lm358.91)   40.0000          (X_U4B.x_lm358.92)  -40.0000              

(X_U4B.x_lm358.99)    0.0000          (X_U5A.x_lm358.10)   10.5880              

(X_U5A.x_lm358.11)  -16.9610          (X_U5A.x_lm358.12)  -16.9640              

(X_U5A.x_lm358.13)   10.5750          (X_U5A.x_lm358.14)   10.5760              

(X_U5A.x_lm358.53)   15.5000          (X_U5A.x_lm358.54)  -16.1780              

(X_U5A.x_lm358.90)    3.5909          (X_U5A.x_lm358.91)   40.0000              

(X_U5A.x_lm358.92)  -40.0000          (X_U5A.x_lm358.99)    0.0000              

(X_U5B.x_lm358.10)   10.8210          (X_U5B.x_lm358.11)  -16.9610              

(X_U5B.x_lm358.12)  -16.9640          (X_U5B.x_lm358.13)   10.8070              

(X_U5B.x_lm358.14)   10.8080          (X_U5B.x_lm358.53)   15.5000              

(X_U5B.x_lm358.54)  -16.1780          (X_U5B.x_lm358.90)    7.0727              

(X_U5B.x_lm358.91)   40.0000          (X_U5B.x_lm358.92)  -40.0000              

(X_U5B.x_lm358.99)    0.0000          (X_U6A.x_lm358.10)    2.9003              

(X_U6A.x_lm358.11)  -16.9600          (X_U6A.x_lm358.12)  -16.9610              

(X_U6A.x_lm358.13)    2.8865          (X_U6A.x_lm358.14)    2.8868              

(X_U6A.x_lm358.53)   15.5000          (X_U6A.x_lm358.54)  -16.1780              

(X_U6A.x_lm358.90)   -4.0934          (X_U6A.x_lm358.91)   40.0000              

(X_U6A.x_lm358.92)  -40.0000          (X_U6A.x_lm358.99)    0.0000          




    VOLTAGE SOURCE CURRENTS
    NAME         CURRENT

    V_V1        -5.927E-02
    V_V2         2.997E-02
    V_V3        -2.212E-01
    X_U4A.x_lm358.vb   1.494E-05
    X_U4A.x_lm358.vc   3.249E-11
    X_U4A.x_lm358.ve  -3.354E-02
    X_U4A.x_lm358.vlim  -4.061E-02
    X_U4A.x_lm358.vlp  -8.061E-11
    X_U4A.x_lm358.vln   1.414E-05
    X_U4B.x_lm358.vb  -2.633E-08
    X_U4B.x_lm358.vc   1.845E-12
    X_U4B.x_lm358.ve   3.205E-11
    X_U4B.x_lm358.vlim   4.093E-03
    X_U4B.x_lm358.vlp  -3.591E-11
    X_U4B.x_lm358.vln  -4.410E-11
    X_U5A.x_lm358.vb  -1.933E-08
    X_U5A.x_lm358.vc   5.520E-12
    X_U5A.x_lm358.ve   2.837E-11
    X_U5A.x_lm358.vlim   3.591E-03
    X_U5A.x_lm358.vlp  -3.641E-11
    X_U5A.x_lm358.vln  -4.360E-11
    X_U5B.x_lm358.vb  -2.027E-08
    X_U5B.x_lm358.vc   5.288E-12
    X_U5B.x_lm358.ve   2.861E-11
    X_U5B.x_lm358.vlim   7.073E-03
    X_U5B.x_lm358.vlp  -3.293E-11
    X_U5B.x_lm358.vln  -4.708E-11
    X_U6A.x_lm358.vb  -3.735E-09
    X_U6A.x_lm358.vc   1.321E-11
    X_U6A.x_lm358.ve   2.069E-11
    X_U6A.x_lm358.vlim  -4.093E-03
    X_U6A.x_lm358.vlp  -4.409E-11
    X_U6A.x_lm358.vln  -3.591E-11

    TOTAL POWER DISSIPATION   2.43E+00  WATTS


**** 05/22/23 12:02:11 **** PSpice 22.1.0 (9 December 2022) *** ID# 0 ********

 ** Profile: "SCHEMATIC1-montecarlo_timp"  [ C:\Miruna\PROIECT_ORCAD\Proiect-PSpiceFiles\SCHEMATIC1\montecarlo_timp.sim ] 


 ****     INITIAL TRANSIENT SOLUTION       TEMPERATURE =   27.000 DEG C

                      MONTE CARLO PASS 11

******************************************************************************



 NODE   VOLTAGE     NODE   VOLTAGE     NODE   VOLTAGE     NODE   VOLTAGE


(  OUT)  -16.9890  (  VCC)   17.0000  ( -VCC)  -17.0000  ( REF1)    2.2949      

( REF2)   10.1920  (N00075)     .6231 (N00177)    9.9894 (N00390)    9.9858     

(N00477)    6.3917 (N00618)    6.3893 (N00681)   13.7380 (N00786)    3.0807     

(N01788)  -16.9890 (N01792)   17.0000 (N02007)  -16.9890 (N02701)    2.2958     

(N03121)   10.1950 (N12559)    4.0000 (X_U4A.x_lm358.6)    1.4943               

(X_U4A.x_lm358.7)  -19.0200           (X_U4A.x_lm358.8)  -19.0200               

(X_U4A.x_lm358.9)    0.0000           (X_U4A.x_lm358.a)     .0406               

(X_U4A.x_lm358.b)  -16.9590           (X_U4B.x_lm358.6)    -.0026               

(X_U4B.x_lm358.7)   13.9440           (X_U4B.x_lm358.8)   13.9440               

(X_U4B.x_lm358.9)    0.0000           (X_U4B.x_lm358.a)   16.9960               

(X_U4B.x_lm358.b)    -.0041           (X_U5A.x_lm358.6)    -.0019               

(X_U5A.x_lm358.7)   10.1660           (X_U5A.x_lm358.8)   10.1660               

(X_U5A.x_lm358.9)    0.0000           (X_U5A.x_lm358.a)   16.9960               

(X_U5A.x_lm358.b)    -.0036           (X_U5B.x_lm358.6)    -.0020               

(X_U5B.x_lm358.7)   10.5460           (X_U5B.x_lm358.8)   10.5460               

(X_U5B.x_lm358.9)    0.0000           (X_U5B.x_lm358.a)   16.9930               

(X_U5B.x_lm358.b)    -.0071           (X_U6A.x_lm358.6)-373.7E-06               

(X_U6A.x_lm358.7)    2.0893           (X_U6A.x_lm358.8)    2.0893               

(X_U6A.x_lm358.9)    0.0000           (X_U6A.x_lm358.a)     .0041               

(X_U6A.x_lm358.b)  -16.9960           (X_U4A.x_lm358.10)    3.7194              

(X_U4A.x_lm358.11)  -17.0000          (X_U4A.x_lm358.12)  -16.9220              

(X_U4A.x_lm358.13)    3.7194          (X_U4A.x_lm358.14)    3.6920              

(X_U4A.x_lm358.53)   15.5000          (X_U4A.x_lm358.54)  -16.1780              

(X_U4A.x_lm358.90)  -40.6100          (X_U4A.x_lm358.91)   40.0000              

(X_U4A.x_lm358.92)  -40.0000          (X_U4A.x_lm358.99)    0.0000              

(X_U4B.x_lm358.10)    6.9969          (X_U4B.x_lm358.11)  -16.9600              

(X_U4B.x_lm358.12)  -16.9630          (X_U4B.x_lm358.13)    6.9830              

(X_U4B.x_lm358.14)    6.9839          (X_U4B.x_lm358.53)   15.5000              

(X_U4B.x_lm358.54)  -16.1780          (X_U4B.x_lm358.90)    4.1122              

(X_U4B.x_lm358.91)   40.0000          (X_U4B.x_lm358.92)  -40.0000              

(X_U4B.x_lm358.99)    0.0000          (X_U5A.x_lm358.10)   10.5930              

(X_U5A.x_lm358.11)  -16.9610          (X_U5A.x_lm358.12)  -16.9640              

(X_U5A.x_lm358.13)   10.5790          (X_U5A.x_lm358.14)   10.5810              

(X_U5A.x_lm358.53)   15.5000          (X_U5A.x_lm358.54)  -16.1780              

(X_U5A.x_lm358.90)    3.6063          (X_U5A.x_lm358.91)   40.0000              

(X_U5A.x_lm358.92)  -40.0000          (X_U5A.x_lm358.99)    0.0000              

(X_U5B.x_lm358.10)   10.7990          (X_U5B.x_lm358.11)  -16.9610              

(X_U5B.x_lm358.12)  -16.9640          (X_U5B.x_lm358.13)   10.7850              

(X_U5B.x_lm358.14)   10.7870          (X_U5B.x_lm358.53)   15.5000              

(X_U5B.x_lm358.54)  -16.1780          (X_U5B.x_lm358.90)    7.0957              

(X_U5B.x_lm358.91)   40.0000          (X_U5B.x_lm358.92)  -40.0000              

(X_U5B.x_lm358.99)    0.0000          (X_U6A.x_lm358.10)    2.9026              

(X_U6A.x_lm358.11)  -16.9600          (X_U6A.x_lm358.12)  -16.9610              

(X_U6A.x_lm358.13)    2.8887          (X_U6A.x_lm358.14)    2.8890              

(X_U6A.x_lm358.53)   15.5000          (X_U6A.x_lm358.54)  -16.1780              

(X_U6A.x_lm358.90)   -4.1123          (X_U6A.x_lm358.91)   40.0000              

(X_U6A.x_lm358.92)  -40.0000          (X_U6A.x_lm358.99)    0.0000          




    VOLTAGE SOURCE CURRENTS
    NAME         CURRENT

    V_V1        -5.947E-02
    V_V2         3.001E-02
    V_V3        -2.212E-01
    X_U4A.x_lm358.vb   1.494E-05
    X_U4A.x_lm358.vc   3.249E-11
    X_U4A.x_lm358.ve  -3.351E-02
    X_U4A.x_lm358.vlim  -4.061E-02
    X_U4A.x_lm358.vlp  -8.061E-11
    X_U4A.x_lm358.vln   1.414E-05
    X_U4B.x_lm358.vb  -2.649E-08
    X_U4B.x_lm358.vc   1.762E-12
    X_U4B.x_lm358.ve   3.213E-11
    X_U4B.x_lm358.vlim   4.112E-03
    X_U4B.x_lm358.vlp  -3.589E-11
    X_U4B.x_lm358.vln  -4.412E-11
    X_U5A.x_lm358.vb  -1.934E-08
    X_U5A.x_lm358.vc   5.515E-12
    X_U5A.x_lm358.ve   2.838E-11
    X_U5A.x_lm358.vlim   3.606E-03
    X_U5A.x_lm358.vlp  -3.639E-11
    X_U5A.x_lm358.vln  -4.361E-11
    X_U5B.x_lm358.vb  -2.023E-08
    X_U5B.x_lm358.vc   5.309E-12
    X_U5B.x_lm358.ve   2.858E-11
    X_U5B.x_lm358.vlim   7.096E-03
    X_U5B.x_lm358.vlp  -3.291E-11
    X_U5B.x_lm358.vln  -4.710E-11
    X_U6A.x_lm358.vb  -3.737E-09
    X_U6A.x_lm358.vc   1.321E-11
    X_U6A.x_lm358.ve   2.069E-11
    X_U6A.x_lm358.vlim  -4.112E-03
    X_U6A.x_lm358.vlp  -4.411E-11
    X_U6A.x_lm358.vln  -3.589E-11

    TOTAL POWER DISSIPATION   2.43E+00  WATTS


**** 05/22/23 12:02:11 **** PSpice 22.1.0 (9 December 2022) *** ID# 0 ********

 ** Profile: "SCHEMATIC1-montecarlo_timp"  [ C:\Miruna\PROIECT_ORCAD\Proiect-PSpiceFiles\SCHEMATIC1\montecarlo_timp.sim ] 


 ****     INITIAL TRANSIENT SOLUTION       TEMPERATURE =   27.000 DEG C

                      MONTE CARLO PASS 12

******************************************************************************



 NODE   VOLTAGE     NODE   VOLTAGE     NODE   VOLTAGE     NODE   VOLTAGE


(  OUT)  -16.9890  (  VCC)   17.0000  ( -VCC)  -17.0000  ( REF1)    2.2981      

( REF2)   10.2180  (N00075)     .6232 (N00177)    9.9726 (N00390)    9.9690     

(N00477)    6.3800 (N00618)    6.3776 (N00681)   13.6440 (N00786)    3.1717     

(N01788)  -16.9890 (N01792)   17.0000 (N02007)  -16.9890 (N02701)    2.2991     

(N03121)   10.2210 (N12559)    4.0000 (X_U4A.x_lm358.6)    1.4941               

(X_U4A.x_lm358.7)  -19.0200           (X_U4A.x_lm358.8)  -19.0200               

(X_U4A.x_lm358.9)    0.0000           (X_U4A.x_lm358.a)     .0406               

(X_U4A.x_lm358.b)  -16.9590           (X_U4B.x_lm358.6)    -.0026               

(X_U4B.x_lm358.7)   13.8470           (X_U4B.x_lm358.8)   13.8470               

(X_U4B.x_lm358.9)    0.0000           (X_U4B.x_lm358.a)   16.9960               

(X_U4B.x_lm358.b)    -.0041           (X_U5A.x_lm358.6)    -.0019               

(X_U5A.x_lm358.7)   10.1480           (X_U5A.x_lm358.8)   10.1480               

(X_U5A.x_lm358.9)    0.0000           (X_U5A.x_lm358.a)   16.9960               

(X_U5A.x_lm358.b)    -.0036           (X_U5B.x_lm358.6)    -.0020               

(X_U5B.x_lm358.7)   10.5710           (X_U5B.x_lm358.8)   10.5710               

(X_U5B.x_lm358.9)    0.0000           (X_U5B.x_lm358.a)   16.9930               

(X_U5B.x_lm358.b)    -.0071           (X_U6A.x_lm358.6)-374.9E-06               

(X_U6A.x_lm358.7)    2.0947           (X_U6A.x_lm358.8)    2.0947               

(X_U6A.x_lm358.9)    0.0000           (X_U6A.x_lm358.a)     .0041               

(X_U6A.x_lm358.b)  -16.9960           (X_U4A.x_lm358.10)    3.8103              

(X_U4A.x_lm358.11)  -17.0000          (X_U4A.x_lm358.12)  -16.9220              

(X_U4A.x_lm358.13)    3.8103          (X_U4A.x_lm358.14)    3.7830              

(X_U4A.x_lm358.53)   15.5000          (X_U4A.x_lm358.54)  -16.1780              

(X_U4A.x_lm358.90)  -40.6100          (X_U4A.x_lm358.91)   40.0000              

(X_U4A.x_lm358.92)  -40.0000          (X_U4A.x_lm358.99)    0.0000              

(X_U4B.x_lm358.10)    6.9852          (X_U4B.x_lm358.11)  -16.9600              

(X_U4B.x_lm358.12)  -16.9630          (X_U4B.x_lm358.13)    6.9714              

(X_U4B.x_lm358.14)    6.9722          (X_U4B.x_lm358.53)   15.5000              

(X_U4B.x_lm358.54)  -16.1780          (X_U4B.x_lm358.90)    4.0689              

(X_U4B.x_lm358.91)   40.0000          (X_U4B.x_lm358.92)  -40.0000              

(X_U4B.x_lm358.99)    0.0000          (X_U5A.x_lm358.10)   10.5760              

(X_U5A.x_lm358.11)  -16.9610          (X_U5A.x_lm358.12)  -16.9640              

(X_U5A.x_lm358.13)   10.5630          (X_U5A.x_lm358.14)   10.5640              

(X_U5A.x_lm358.53)   15.5000          (X_U5A.x_lm358.54)  -16.1780              

(X_U5A.x_lm358.90)    3.5859          (X_U5A.x_lm358.91)   40.0000              

(X_U5A.x_lm358.92)  -40.0000          (X_U5A.x_lm358.99)    0.0000              

(X_U5B.x_lm358.10)   10.8250          (X_U5B.x_lm358.11)  -16.9610              

[...]

(X_U6A.x_lm358.90)   -4.0781          (X_U6A.x_lm358.91)   40.0000              

(X_U6A.x_lm358.92)  -40.0000          (X_U6A.x_lm358.99)    0.0000          




    VOLTAGE SOURCE CURRENTS
    NAME         CURRENT

    V_V1        -5.946E-02
    V_V2         2.998E-02
    V_V3        -2.212E-01
    X_U4A.x_lm358.vb   1.494E-05
    X_U4A.x_lm358.vc   3.249E-11
    X_U4A.x_lm358.ve  -3.350E-02
    X_U4A.x_lm358.vlim  -4.061E-02
    X_U4A.x_lm358.vlp  -8.061E-11
    X_U4A.x_lm358.vln   1.414E-05
    X_U4B.x_lm358.vb  -2.623E-08
    X_U4B.x_lm358.vc   1.897E-12
    X_U4B.x_lm358.ve   3.200E-11
    X_U4B.x_lm358.vlim   4.078E-03
    X_U4B.x_lm358.vlp  -3.592E-11
    X_U4B.x_lm358.vln  -4.408E-11
    X_U5A.x_lm358.vb  -1.925E-08
    X_U5A.x_lm358.vc   5.560E-12
    X_U5A.x_lm358.ve   2.833E-11
    X_U5A.x_lm358.vlim   3.590E-03
    X_U5A.x_lm358.vlp  -3.641E-11
    X_U5A.x_lm358.vln  -4.359E-11
    X_U5B.x_lm358.vb  -2.026E-08
    X_U5B.x_lm358.vc   5.294E-12
    X_U5B.x_lm358.ve   2.860E-11
    X_U5B.x_lm358.vlim   7.107E-03
    X_U5B.x_lm358.vlp  -3.289E-11
    X_U5B.x_lm358.vln  -4.711E-11
    X_U6A.x_lm358.vb  -3.734E-09
    X_U6A.x_lm358.vc   1.321E-11
    X_U6A.x_lm358.ve   2.068E-11
    X_U6A.x_lm358.vlim  -4.078E-03
    X_U6A.x_lm358.vlp  -4.408E-11
    X_U6A.x_lm358.vln  -3.593E-11

    TOTAL POWER DISSIPATION   2.43E+00  WATTS


**** 05/22/23 12:02:11 **** PSpice 22.1.0 (9 December 2022) *** ID# 0 ********

 ** Profile: "SCHEMATIC1-montecarlo_timp"  [ C:\Miruna\PROIECT_ORCAD\Proiect-PSpiceFiles\SCHEMATIC1\montecarlo_timp.sim ] 


 ****     INITIAL TRANSIENT SOLUTION       TEMPERATURE =   27.000 DEG C

                      MONTE CARLO PASS 49

******************************************************************************



 NODE   VOLTAGE     NODE   VOLTAGE     NODE   VOLTAGE     NODE   VOLTAGE


(  OUT)  -16.9890  (  VCC)   17.0000  ( -VCC)  -17.0000  ( REF1)    2.2944      

( REF2)   10.2350  (N00075)     .6230 (N00177)   10.0010 (N00390)    9.9973     

(N00477)    6.4057 (N00618)    6.4033 (N00681)   13.7210 (N00786)    3.1682     

(N01788)  -16.9890 (N01792)   17.0000 (N02007)  -16.9890 (N02701)    2.2954     

(N03121)   10.2390 (N12559)    4.0000 (X_U4A.x_lm358.6)    1.4941               

(X_U4A.x_lm358.7)  -19.0200           (X_U4A.x_lm358.8)  -19.0200               

(X_U4A.x_lm358.9)    0.0000           (X_U4A.x_lm358.a)     .0406               

(X_U4A.x_lm358.b)  -16.9590           (X_U4B.x_lm358.6)    -.0026               

(X_U4B.x_lm358.7)   13.9260           (X_U4B.x_lm358.8)   13.9260               

(X_U4B.x_lm358.9)    0.0000           (X_U4B.x_lm358.a)   16.9960               

(X_U4B.x_lm358.b)    -.0041           (X_U5A.x_lm358.6)    -.0019               

(X_U5A.x_lm358.7)   10.1770           (X_U5A.x_lm358.8)   10.1770               

(X_U5A.x_lm358.9)    0.0000           (X_U5A.x_lm358.a)   16.9960               

(X_U5A.x_lm358.b)    -.0036           (X_U5B.x_lm358.6)    -.0020               

(X_U5B.x_lm358.7)   10.5900           (X_U5B.x_lm358.8)   10.5900               

(X_U5B.x_lm358.9)    0.0000           (X_U5B.x_lm358.a)   16.9930               

(X_U5B.x_lm358.b)    -.0071           (X_U6A.x_lm358.6)-373.7E-06               

(X_U6A.x_lm358.7)    2.0893           (X_U6A.x_lm358.8)    2.0893               

(X_U6A.x_lm358.9)    0.0000           (X_U6A.x_lm358.a)     .0041               

(X_U6A.x_lm358.b)  -16.9960           (X_U4A.x_lm358.10)    3.8068              

(X_U4A.x_lm358.11)  -17.0000          (X_U4A.x_lm358.12)  -16.9220              

(X_U4A.x_lm358.13)    3.8068          (X_U4A.x_lm358.14)    3.7795              

(X_U4A.x_lm358.53)   15.5000          (X_U4A.x_lm358.54)  -16.1780              

(X_U4A.x_lm358.90)  -40.6100          (X_U4A.x_lm358.91)   40.0000              

(X_U4A.x_lm358.92)  -40.0000          (X_U4A.x_lm358.99)    0.0000              

(X_U4B.x_lm358.10)    7.0108          (X_U4B.x_lm358.11)  -16.9600              

(X_U4B.x_lm358.12)  -16.9630          (X_U4B.x_lm358.13)    6.9970              

(X_U4B.x_lm358.14)    6.9978          (X_U4B.x_lm358.53)   15.5000              

(X_U4B.x_lm358.54)  -16.1780          (X_U4B.x_lm358.90)    4.1018              

(X_U4B.x_lm358.91)   40.0000          (X_U4B.x_lm358.92)  -40.0000              

(X_U4B.x_lm358.99)    0.0000          (X_U5A.x_lm358.10)   10.6050              

(X_U5A.x_lm358.11)  -16.9610          (X_U5A.x_lm358.12)  -16.9640              

(X_U5A.x_lm358.13)   10.5910          (X_U5A.x_lm358.14)   10.5920              

(X_U5A.x_lm358.53)   15.5000          (X_U5A.x_lm358.54)  -16.1780              

(X_U5A.x_lm358.90)    3.5887          (X_U5A.x_lm358.91)   40.0000              

(X_U5A.x_lm358.92)  -40.0000          (X_U5A.x_lm358.99)    0.0000              

(X_U5B.x_lm358.10)   10.8420          (X_U5B.x_lm358.11)  -16.9610              

(X_U5B.x_lm358.12)  -16.9640          (X_U5B.x_lm358.13)   10.8290              

(X_U5B.x_lm358.14)   10.8300          (X_U5B.x_lm358.53)   15.5000              

(X_U5B.x_lm358.54)  -16.1780          (X_U5B.x_lm358.90)    7.0967              

(X_U5B.x_lm358.91)   40.0000          (X_U5B.x_lm358.92)  -40.0000              

(X_U5B.x_lm358.99)    0.0000          (X_U6A.x_lm358.10)    2.9021              

(X_U6A.x_lm358.11)  -16.9600          (X_U6A.x_lm358.12)  -16.9610              

(X_U6A.x_lm358.13)    2.8882          (X_U6A.x_lm358.14)    2.8886              

(X_U6A.x_lm358.53)   15.5000          (X_U6A.x_lm358.54)  -16.1780              

(X_U6A.x_lm358.90)   -4.1019          (X_U6A.x_lm358.91)   40.0000              

(X_U6A.x_lm358.92)  -40.0000          (X_U6A.x_lm358.99)    0.0000          




    VOLTAGE SOURCE CURRENTS
    NAME         CURRENT

    V_V1        -5.945E-02
    V_V2         3.000E-02
    V_V3        -2.212E-01
    X_U4A.x_lm358.vb   1.494E-05
    X_U4A.x_lm358.vc   3.249E-11
    X_U4A.x_lm358.ve  -3.351E-02
    X_U4A.x_lm358.vlim  -4.061E-02
    X_U4A.x_lm358.vlp  -8.061E-11
    X_U4A.x_lm358.vln   1.414E-05
    X_U4B.x_lm358.vb  -2.645E-08
    X_U4B.x_lm358.vc   1.780E-12
    X_U4B.x_lm358.ve   3.211E-11
    X_U4B.x_lm358.vlim   4.102E-03
    X_U4B.x_lm358.vlp  -3.590E-11
    X_U4B.x_lm358.vln  -4.411E-11
    X_U5A.x_lm358.vb  -1.936E-08
    X_U5A.x_lm358.vc   5.503E-12
    X_U5A.x_lm358.ve   2.839E-11
    X_U5A.x_lm358.vlim   3.589E-03
    X_U5A.x_lm358.vlp  -3.641E-11
    X_U5A.x_lm358.vln  -4.359E-11
    X_U5B.x_lm358.vb  -2.031E-08
    X_U5B.x_lm358.vc   5.266E-12
    X_U5B.x_lm358.ve   2.863E-11
    X_U5B.x_lm358.vlim   7.097E-03
    X_U5B.x_lm358.vlp  -3.290E-11
    X_U5B.x_lm358.vln  -4.710E-11
    X_U6A.x_lm358.vb  -3.737E-09
    X_U6A.x_lm358.vc   1.321E-11
    X_U6A.x_lm358.ve   2.069E-11
    X_U6A.x_lm358.vlim  -4.102E-03
    X_U6A.x_lm358.vlp  -4.410E-11
    X_U6A.x_lm358.vln  -3.590E-11

    TOTAL POWER DISSIPATION   2.43E+00  WATTS


**** 05/22/23 12:02:11 **** PSpice 22.1.0 (9 December 2022) *** ID# 0 ********

 ** Profile: "SCHEMATIC1-montecarlo_timp"  [ C:\Miruna\PROIECT_ORCAD\Proiect-PSpiceFiles\SCHEMATIC1\montecarlo_timp.sim ] 


 ****     INITIAL TRANSIENT SOLUTION       TEMPERATURE =   27.000 DEG C

                      MONTE CARLO PASS 50

******************************************************************************



 NODE   VOLTAGE     NODE   VOLTAGE     NODE   VOLTAGE     NODE   VOLTAGE


(  OUT)  -16.9890  (  VCC)   17.0000  ( -VCC)  -17.0000  ( REF1)    2.2922      

( REF2)   10.2450  (N00075)     .6233 (N00177)    9.9467 (N00390)    9.9431     

(N00477)    6.3639 (N00618)    6.3615 (N00681)   13.6290 (N00786)    3.1260     

(N01788)  -16.9890 (N01792)   17.0000 (N02007)  -16.9890 (N02701)    2.2931     

(N03121)   10.2480 (N12559)    4.0000 (X_U4A.x_lm358.6)    1.4942               

(X_U4A.x_lm358.7)  -19.0200           (X_U4A.x_lm358.8)  -19.0200               

(X_U4A.x_lm358.9)    0.0000           (X_U4A.x_lm358.a)     .0406               

(X_U4A.x_lm358.b)  -16.9590           (X_U4B.x_lm358.6)    -.0026               

(X_U4B.x_lm358.7)   13.8330           (X_U4B.x_lm358.8)   13.8330               

(X_U4B.x_lm358.9)    0.0000           (X_U4B.x_lm358.a)   16.9960               

(X_U4B.x_lm358.b)    -.0041           (X_U5A.x_lm358.6)    -.0019               

(X_U5A.x_lm358.7)   10.1220           (X_U5A.x_lm358.8)   10.1220               

(X_U5A.x_lm358.9)    0.0000           (X_U5A.x_lm358.a)   16.9960               

(X_U5A.x_lm358.b)    -.0036           (X_U5B.x_lm358.6)    -.0020               

(X_U5B.x_lm358.7)   10.6000           (X_U5B.x_lm358.8)   10.6000               

(X_U5B.x_lm358.9)    0.0000           (X_U5B.x_lm358.a)   16.9930               

(X_U5B.x_lm358.b)    -.0071           (X_U6A.x_lm358.6)-373.7E-06               

(X_U6A.x_lm358.7)    2.0884           (X_U6A.x_lm358.8)    2.0884               

(X_U6A.x_lm358.9)    0.0000           (X_U6A.x_lm358.a)     .0041               

(X_U6A.x_lm358.b)  -16.9960           (X_U4A.x_lm358.10)    3.7646              

(X_U4A.x_lm358.11)  -17.0000          (X_U4A.x_lm358.12)  -16.9220              

(X_U4A.x_lm358.13)    3.7646          (X_U4A.x_lm358.14)    3.7373              

(X_U4A.x_lm358.53)   15.5000          (X_U4A.x_lm358.54)  -16.1780              

(X_U4A.x_lm358.90)  -40.6100          (X_U4A.x_lm358.91)   40.0000              

(X_U4A.x_lm358.92)  -40.0000          (X_U4A.x_lm358.99)    0.0000              

(X_U4B.x_lm358.10)    6.9691          (X_U4B.x_lm358.11)  -16.9600              

(X_U4B.x_lm358.12)  -16.9630          (X_U4B.x_lm358.13)    6.9553              

(X_U4B.x_lm358.14)    6.9561          (X_U4B.x_lm358.53)   15.5000              

(X_U4B.x_lm358.54)  -16.1780          (X_U4B.x_lm358.90)    4.0756              

(X_U4B.x_lm358.91)   40.0000          (X_U4B.x_lm358.92)  -40.0000              

(X_U4B.x_lm358.99)    0.0000          (X_U5A.x_lm358.10)   10.5510              

(X_U5A.x_lm358.11)  -16.9610          (X_U5A.x_lm358.12)  -16.9640              

(X_U5A.x_lm358.13)   10.5370          (X_U5A.x_lm358.14)   10.5380              

(X_U5A.x_lm358.53)   15.5000          (X_U5A.x_lm358.54)  -16.1780              

(X_U5A.x_lm358.90)    3.5728          (X_U5A.x_lm358.91)   40.0000              

(X_U5A.x_lm358.92)  -40.0000          (X_U5A.x_lm358.99)    0.0000              

(X_U5B.x_lm358.10)   10.8520          (X_U5B.x_lm358.11)  -16.9610              

(X_U5B.x_lm358.12)  -16.9640          (X_U5B.x_lm358.13)   10.8380              

(X_U5B.x_lm358.14)   10.8390          (X_U5B.x_lm358.53)   15.5000              

(X_U5B.x_lm358.54)  -16.1780          (X_U5B.x_lm358.90)    7.1177              

(X_U5B.x_lm358.91)   40.0000          (X_U5B.x_lm358.92)  -40.0000              

(X_U5B.x_lm358.99)    0.0000          (X_U6A.x_lm358.10)    2.8999              

(X_U6A.x_lm358.11)  -16.9600          (X_U6A.x_lm358.12)  -16.9610              

(X_U6A.x_lm358.13)    2.8860          (X_U6A.x_lm358.14)    2.8863              

(X_U6A.x_lm358.53)   15.5000          (X_U6A.x_lm358.54)  -16.1780              

(X_U6A.x_lm358.90)   -4.0757          (X_U6A.x_lm358.91)   40.0000              

(X_U6A.x_lm358.92)  -40.0000          (X_U6A.x_lm358.99)    0.0000          




    VOLTAGE SOURCE CURRENTS
    NAME         CURRENT

    V_V1        -5.930E-02
    V_V2         2.999E-02
    V_V3        -2.212E-01
    X_U4A.x_lm358.vb   1.494E-05
    X_U4A.x_lm358.vc   3.249E-11
    X_U4A.x_lm358.ve  -3.349E-02
    X_U4A.x_lm358.vlim  -4.061E-02
    X_U4A.x_lm358.vlp  -8.061E-11
    X_U4A.x_lm358.vln   1.414E-05
    X_U4B.x_lm358.vb  -2.627E-08
    X_U4B.x_lm358.vc   1.872E-12
    X_U4B.x_lm358.ve   3.202E-11
    X_U4B.x_lm358.vlim   4.076E-03
    X_U4B.x_lm358.vlp  -3.593E-11
    X_U4B.x_lm358.vln  -4.408E-11
    X_U5A.x_lm358.vb  -1.925E-08
    X_U5A.x_lm358.vc   5.558E-12
    X_U5A.x_lm358.ve   2.834E-11
    X_U5A.x_lm358.vlim   3.573E-03
    X_U5A.x_lm358.vlp  -3.643E-11
    X_U5A.x_lm358.vln  -4.358E-11
    X_U5B.x_lm358.vb  -2.033E-08
    X_U5B.x_lm358.vc   5.256E-12
    X_U5B.x_lm358.ve   2.864E-11
    X_U5B.x_lm358.vlim   7.118E-03
    X_U5B.x_lm358.vlp  -3.288E-11
    X_U5B.x_lm358.vln  -4.712E-11
    X_U6A.x_lm358.vb  -3.737E-09
    X_U6A.x_lm358.vc   1.321E-11
    X_U6A.x_lm358.ve   2.069E-11
    X_U6A.x_lm358.vlim  -4.076E-03
    X_U6A.x_lm358.vlp  -4.408E-11
    X_U6A.x_lm358.vln  -3.593E-11

    TOTAL POWER DISSIPATION   2.43E+00  WATTS


**** 05/22/23 12:02:11 **** PSpice 22.1.0 (9 December 2022) *** ID# 0 ********

 ** Profile: "SCHEMATIC1-montecarlo_timp"  [ C:\Miruna\PROIECT_ORCAD\Proiect-PSpiceFiles\SCHEMATIC1\montecarlo_timp.sim ] 


 ****     SORTED DEVIATIONS OF V(OUT)      TEMPERATURE =   27.000 DEG C

                      MONTE CARLO SUMMARY

******************************************************************************





Mean Deviation =   -1.4013E-06
Sigma          =   12.1900E-06

 RUN                    MAX DEVIATION FROM NOMINAL

Pass   50             26.7030E-06  (2.19 sigma)  higher  at T =    2.0000E-06
                        ( 100   % of Nominal)

Pass    6             20.9810E-06  (1.72 sigma)  lower  at T =    2.0000E-06
                        ( 100   % of Nominal)

Pass   42             20.9810E-06  (1.72 sigma)  lower  at T =    2.0000E-06
                        ( 100   % of Nominal)

Pass   21             19.0730E-06  (1.56 sigma)  lower  at T =    2.0000E-06
                        ( 100   % of Nominal)

Pass   15             19.0730E-06  (1.56 sigma)  lower  at T =    2.0000E-06
                        ( 100   % of Nominal)

Pass   16             19.0730E-06  (1.56 sigma)  lower  at T =    2.0000E-06
                        ( 100   % of Nominal)

Pass   41             19.0730E-06  (1.56 sigma)  higher  at T =    2.0000E-06
                        ( 100   % of Nominal)

Pass   48             19.0730E-06  (1.56 sigma)  higher  at T =    2.0000E-06
                        ( 100   % of Nominal)

Pass   40             17.1660E-06  (1.41 sigma)  lower  at T =    2.0000E-06
                        ( 100   % of Nominal)

Pass   18             15.2590E-06  (1.25 sigma)  lower  at T =    2.0000E-06
                        ( 100   % of Nominal)

Pass   30             15.2590E-06  (1.25 sigma)  higher  at T =    2.0000E-06
                        ( 100   % of Nominal)

Pass    2             13.3510E-06  (1.10 sigma)  lower  at T =    2.0000E-06
                        ( 100   % of Nominal)

Pass    8             13.3510E-06  (1.10 sigma)  lower  at T =    2.0000E-06
                        ( 100   % of Nominal)

Pass   12             13.3510E-06  (1.10 sigma)  lower  at T =    2.0000E-06
                        ( 100   % of Nominal)

Pass   13             13.3510E-06  (1.10 sigma)  higher  at T =    2.0000E-06
                        ( 100   % of Nominal)

Pass   14             13.3510E-06  (1.10 sigma)  lower  at T =    2.0000E-06
                        ( 100   % of Nominal)

Pass   35             13.3510E-06  (1.10 sigma)  higher  at T =    2.0000E-06
                        ( 100   % of Nominal)

Pass   45             13.3510E-06  (1.10 sigma)  higher  at T =    2.0000E-06
                        ( 100   % of Nominal)

Pass   20             11.4440E-06  ( .94 sigma)  lower  at T =    2.0000E-06
                        ( 100   % of Nominal)

Pass   24             11.4440E-06  ( .94 sigma)  higher  at T =    2.0000E-06
                        ( 100   % of Nominal)

Pass   36             11.4440E-06  ( .94 sigma)  lower  at T =    2.0000E-06
                        ( 100   % of Nominal)

Pass   25             11.4440E-06  ( .94 sigma)  lower  at T =    2.0000E-06
                        ( 100   % of Nominal)

Pass   49             11.4440E-06  ( .94 sigma)  higher  at T =    2.0000E-06
                        ( 100   % of Nominal)

Pass   23              9.5367E-06  ( .78 sigma)  lower  at T =    2.0000E-06
                        ( 100   % of Nominal)

Pass   32              9.5367E-06  ( .78 sigma)  lower  at T =    2.0000E-06
                        ( 100   % of Nominal)

Pass   28              9.5367E-06  ( .78 sigma)  lower  at T =    2.0000E-06
                        ( 100   % of Nominal)

Pass   37              9.5367E-06  ( .78 sigma)  higher  at T =    2.0000E-06
                        ( 100   % of Nominal)

Pass    4              9.5367E-06  ( .78 sigma)  lower  at T =    2.0000E-06
                        ( 100   % of Nominal)

Pass    5              9.5367E-06  ( .78 sigma)  higher  at T =    2.0000E-06
                        ( 100   % of Nominal)

Pass    9              9.5367E-06  ( .78 sigma)  higher  at T =    2.0000E-06
                        ( 100   % of Nominal)

Pass   11              9.5367E-06  ( .78 sigma)  higher  at T =    2.0000E-06
                        ( 100   % of Nominal)

Pass   22              9.5367E-06  ( .78 sigma)  higher  at T =    2.0000E-06
                        ( 100   % of Nominal)

Pass   10              7.6294E-06  ( .63 sigma)  lower  at T =    2.0000E-06
                        ( 100   % of Nominal)

Pass   39              7.6294E-06  ( .63 sigma)  lower  at T =    2.0000E-06
                        ( 100   % of Nominal)

Pass   43              7.6294E-06  ( .63 sigma)  lower  at T =    2.0000E-06
                        ( 100   % of Nominal)

Pass   44              7.6294E-06  ( .63 sigma)  higher  at T =    2.0000E-06
                        ( 100   % of Nominal)

Pass   31              7.6294E-06  ( .63 sigma)  higher  at T =    2.0000E-06
                        ( 100   % of Nominal)

Pass   46              7.6294E-06  ( .63 sigma)  lower  at T =    2.0000E-06
                        ( 100   % of Nominal)

Pass   27              5.7220E-06  ( .47 sigma)  higher  at T =    2.0000E-06
                        ( 100   % of Nominal)

Pass   26              5.7220E-06  ( .47 sigma)  higher  at T =    2.0000E-06
                        ( 100   % of Nominal)

Pass   29              3.8147E-06  ( .31 sigma)  lower  at T =    2.0000E-06
                        ( 100   % of Nominal)

Pass   19              3.8147E-06  ( .31 sigma)  lower  at T =    2.0000E-06
                        ( 100   % of Nominal)

Pass   47              3.8147E-06  ( .31 sigma)  higher  at T =    2.0000E-06
                        ( 100   % of Nominal)

Pass   33              3.8147E-06  ( .31 sigma)  higher  at T =    2.0000E-06
                        ( 100   % of Nominal)

Pass    7              1.9073E-06  ( .16 sigma)  higher  at T =    2.0000E-06
                        ( 100   % of Nominal)

Pass    3              1.9073E-06  ( .16 sigma)  higher  at T =    2.0000E-06
                        ( 100   % of Nominal)

Pass   38              1.9073E-06  ( .16 sigma)  lower  at T =    2.0000E-06
                        ( 100   % of Nominal)

Pass   34               0       (0.00 sigma)  unchanged  at T =    0     
                        ( 100   % of Nominal)

Pass   17               0       (0.00 sigma)  unchanged  at T =    0     
                        ( 100   % of Nominal)



          JOB CONCLUDED

**** 05/22/23 12:02:11 **** PSpice 22.1.0 (9 December 2022) *** ID# 0 ********

 ** Profile: "SCHEMATIC1-montecarlo_timp"  [ C:\Miruna\PROIECT_ORCAD\Proiect-PSpiceFiles\SCHEMATIC1\montecarlo_timp.sim ] 


 ****     JOB STATISTICS SUMMARY


******************************************************************************



  Total job time (using Solver 1)   =        3.23
