
**** 05/22/23 16:17:11 **** PSpice 22.1.0 (9 December 2022) *** ID# 0 ********

 ** Profile: "SCHEMATIC1-tranzi"  [ C:\Miruna\PROIECT_ORCAD\Proiect-PSpiceFiles\SCHEMATIC1\tranzi.sim ] 


 ****     CIRCUIT DESCRIPTION


******************************************************************************




** Creating circuit file "tranzi.cir" 
** WARNING: THIS AUTOMATICALLY GENERATED FILE MAY BE OVERWRITTEN BY SUBSEQUENT SIMULATIONS

*Libraries: 
* Profile Libraries :
* Local Libraries :
.LIB "../../../dportocala.lib" 
* From [PSPICE NETLIST] section of C:\SPB_Data\cdssetup\OrCAD_PSpice\22.1.0\PSpice.ini file:
.lib "nom.lib" 

*Analysis directives: 
.TRAN  0 10ms 0 
.STEP LIN PARAM r 35k 15k 100 
.OPTIONS ADVCONV
.PROBE64 V(alias(*)) I(alias(*)) W(alias(*)) D(alias(*)) NOISE(alias(*)) 
.INC "..\SCHEMATIC1.net" 



**** INCLUDING SCHEMATIC1.net ****
* source PROIECT
Q_Q1         N00177 N00075 0 Q2N2222
Q_Q2         N00075 N00075 0 Q2N2222
R_R3         N00075 VCC R_R3 38.8k TC=0,0 
.model        R_R3 RES R=1 DEV=0.5% TC1=0 TC2=0
R_Rsenzor         N00177 VCC  {r} TC=0,0 
R_R5         N00390 N00477 R_R5 1k TC=0,0 
.model        R_R5 RES R=1 DEV=0.5% TC1=0 TC2=0
R_R6         0 N00477 R_R6 1.78k TC=0,0 
.model        R_R6 RES R=1 DEV=0.5% TC1=0 TC2=0
R_R7         N00618 N00681 R_R7 1.78k TC=0,0 
.model        R_R7 RES R=1 DEV=0.5% TC1=0 TC2=0
R_R8         REF1 N00618 R_R8 1k TC=0,0 
.model        R_R8 RES R=1 DEV=0.5% TC1=0 TC2=0
R_R9         REF2 N00786 R_R9 1k TC=0,0 
.model        R_R9 RES R=1 DEV=0.5% TC1=0 TC2=0
R_R10         N00786 OUT R_R10 2.84k TC=0,0 
.model        R_R10 RES R=1 DEV=0.5% TC1=0 TC2=0
R_R11         OUT N01788 R_R11 816 TC=0,0 
.model        R_R11 RES R=1 DEV=0.5% TC1=0 TC2=0
Q_Q3         N01792 N01788 0 Q2N2222
R_R12         N02007 OUT R_R12 768 TC=0,0 
.model        R_R12 RES R=1 DEV=0.5% TC1=0 TC2=0
R_RL         N01792 VCC R_RL 464 TC=0,0 
.model        R_RL RES R=1 DEV=0.5% TC1=0 TC2=0
V_V1         VCC 0 17V
V_V2         -VCC 0 -17V
R_R14         N02701 VCC R_R14 1k TC=0,0 
.model        R_R14 RES R=1 DEV=0.5% TC1=0 TC2=0
R_R15         0 N02701 R_R15 156 TC=0,0 
.model        R_R15 RES R=1 DEV=0.5% TC1=0 TC2=0
R_R16         N03121 VCC R_R16 665 TC=0,0 
.model        R_R16 RES R=1 DEV=0.5% TC1=0 TC2=0
R_R17         0 N03121 R_R17 1k TC=0,0 
.model        R_R17 RES R=1 DEV=0.5% TC1=0 TC2=0
D_Dportocala         N02007 0 Dportocala 
X_U4A         N00786 N00681 VCC -VCC OUT LM358
X_U4B         N00477 N00618 VCC -VCC N00681 LM358
X_U5A         N00177 N00390 VCC -VCC N00390 LM358
X_U5B         N03121 REF2 VCC -VCC REF2 LM358
X_U6A         N02701 REF1 VCC -VCC REF1 LM358
D_Dportocala1         N12559 0 Dportocala 
V_V3         N12559 0 4V
.PARAM  r=15k

**** RESUMING tranzi.cir ****
.END

**** 05/22/23 16:17:11 **** PSpice 22.1.0 (9 December 2022) *** ID# 0 ********

 ** Profile: "SCHEMATIC1-tranzi"  [ C:\Miruna\PROIECT_ORCAD\Proiect-PSpiceFiles\SCHEMATIC1\tranzi.sim ] 


 ****     Diode MODEL PARAMETERS


******************************************************************************




               Dportocala      X_U4A.x_lm358.dx 
          IS   10.013000E-21  800.000000E-18 
           N    1.6367                       
          RS    9.5575          1            


               X_U4A.x_lm358.dy 
          IS  800.000000E-18 
          RS    1.000000E-03 
         CJO   10.000000E-12 


               X_U4B.x_lm358.dx 
          IS  800.000000E-18 
          RS    1            


               X_U4B.x_lm358.dy 
          IS  800.000000E-18 
          RS    1.000000E-03 
         CJO   10.000000E-12 


               X_U5A.x_lm358.dx 
          IS  800.000000E-18 
          RS    1            


               X_U5A.x_lm358.dy 
          IS  800.000000E-18 
          RS    1.000000E-03 
         CJO   10.000000E-12 


               X_U5B.x_lm358.dx 
          IS  800.000000E-18 
          RS    1            


               X_U5B.x_lm358.dy 
          IS  800.000000E-18 
          RS    1.000000E-03 
         CJO   10.000000E-12 


               X_U6A.x_lm358.dx 
          IS  800.000000E-18 
          RS    1            


               X_U6A.x_lm358.dy 
          IS  800.000000E-18 
          RS    1.000000E-03 
         CJO   10.000000E-12 


**** 05/22/23 16:17:11 **** PSpice 22.1.0 (9 December 2022) *** ID# 0 ********

 ** Profile: "SCHEMATIC1-tranzi"  [ C:\Miruna\PROIECT_ORCAD\Proiect-PSpiceFiles\SCHEMATIC1\tranzi.sim ] 


 ****     BJT MODEL PARAMETERS


******************************************************************************




               Q2N2222         X_U4A.x_lm358.qx 
               NPN             PNP             
       LEVEL    1               1            
          IS   14.340000E-15  800.000000E-18 
          BF  255.9           166.7          
          NF    1               1            
         VAF   74.03                         
         IKF     .2847                       
         ISE   14.340000E-15                 
          NE    1.307                        
          BR    6.092           1            
          NR    1               1            
         ISS    0               0            
          RB   10                            
          RE    0               0            
          RC    1               0            
         CJE   22.010000E-12    0            
         VJE     .75             .75         
         MJE     .377                        
         CJC    7.306000E-12    0            
         VJC     .75             .75         
         MJC     .3416           .33         
        XCJC    1               1            
         CJS    0               0            
         VJS     .75             .75         
          TF  411.100000E-12                 
         XTF    3                            
         VTF    1.7                          
         ITF     .6                          
          TR   46.910000E-09                 
         XTB    1.5                          
          KF    0               0            
          AF    1               1            
          CN    2.42            2.2          
           D     .87             .52         


               X_U4B.x_lm358.qx 
               PNP             
       LEVEL    1            
          IS  800.000000E-18 
          BF  166.7          
          NF    1            
          BR    1            
          NR    1            
         ISS    0            
          RE    0            
          RC    0            
         CJE    0            
         VJE     .75         
         CJC    0            
         VJC     .75         
         MJC     .33         
        XCJC    1            
         CJS    0            
         VJS     .75         
          KF    0            
          AF    1            
          CN    2.2          
           D     .52         


               X_U5A.x_lm358.qx 
               PNP             
       LEVEL    1            
          IS  800.000000E-18 
          BF  166.7          
          NF    1            
          BR    1            
          NR    1            
         ISS    0            
          RE    0            
          RC    0            
         CJE    0            
         VJE     .75         
         CJC    0            
         VJC     .75         
         MJC     .33         
        XCJC    1            
         CJS    0            
         VJS     .75         
          KF    0            
          AF    1            
          CN    2.2          
           D     .52         


               X_U5B.x_lm358.qx 
               PNP             
       LEVEL    1            
          IS  800.000000E-18 
          BF  166.7          
          NF    1            
          BR    1            
          NR    1            
         ISS    0            
          RE    0            
          RC    0            
         CJE    0            
         VJE     .75         
         CJC    0            
         VJC     .75         
         MJC     .33         
        XCJC    1            
         CJS    0            
         VJS     .75         
          KF    0            
          AF    1            
          CN    2.2          
           D     .52         


               X_U6A.x_lm358.qx 
               PNP             
       LEVEL    1            
          IS  800.000000E-18 
          BF  166.7          
          NF    1            
          BR    1            
          NR    1            
         ISS    0            
          RE    0            
          RC    0            
         CJE    0            
         VJE     .75         
         CJC    0            
         VJC     .75         
         MJC     .33         
        XCJC    1            
         CJS    0            
         VJS     .75         
          KF    0            
          AF    1            
          CN    2.2          
           D     .52         


**** 05/22/23 16:17:11 **** PSpice 22.1.0 (9 December 2022) *** ID# 0 ********

 ** Profile: "SCHEMATIC1-tranzi"  [ C:\Miruna\PROIECT_ORCAD\Proiect-PSpiceFiles\SCHEMATIC1\tranzi.sim ] 


 ****     Resistor MODEL PARAMETERS


******************************************************************************




               R_R3            R_R5            R_R6            R_R7            
           R    1               1               1               1            


               R_R8            R_R9            R_R10           R_R11           
           R    1               1               1               1            


               R_R12           R_RL            R_R14           R_R15           
           R    1               1               1               1            


               R_R16           R_R17           
           R    1               1            


**** 05/22/23 16:17:11 **** PSpice 22.1.0 (9 December 2022) *** ID# 0 ********

 ** Profile: "SCHEMATIC1-tranzi"  [ C:\Miruna\PROIECT_ORCAD\Proiect-PSpiceFiles\SCHEMATIC1\tranzi.sim ] 


 ****     Current Controlled Switch MODEL PARAMETERS


******************************************************************************




               X_U4A.x_lm358.sw2 
         RON    1            
        ROFF   10.000000E+06 
         ION    0            
        IOFF   -1.000000E-06 


               X_U4A.x_lm358.sw1 
         RON    1            
        ROFF   10.000000E+06 
         ION   -1.000000E-06 
        IOFF    0            


               X_U4A.x_lm358.sw3 
         RON    1            
        ROFF   10.000000E+06 
         ION   -1.000000E-06 
        IOFF    0            


               X_U4A.x_lm358.sw4 
         RON    1            
        ROFF   10.000000E+06 
         ION    0            
        IOFF   -1.000000E-06 


               X_U4B.x_lm358.sw2 
         RON    1            
        ROFF   10.000000E+06 
         ION    0            
        IOFF   -1.000000E-06 


               X_U4B.x_lm358.sw1 
         RON    1            
        ROFF   10.000000E+06 
         ION   -1.000000E-06 
        IOFF    0            


               X_U4B.x_lm358.sw3 
         RON    1            
        ROFF   10.000000E+06 
         ION   -1.000000E-06 
        IOFF    0            


               X_U4B.x_lm358.sw4 
         RON    1            
        ROFF   10.000000E+06 
         ION    0            
        IOFF   -1.000000E-06 


               X_U5A.x_lm358.sw2 
         RON    1            
        ROFF   10.000000E+06 
         ION    0            
        IOFF   -1.000000E-06 


               X_U5A.x_lm358.sw1 
         RON    1            
        ROFF   10.000000E+06 
         ION   -1.000000E-06 
        IOFF    0            


               X_U5A.x_lm358.sw3 
         RON    1            
        ROFF   10.000000E+06 
         ION   -1.000000E-06 
        IOFF    0            


               X_U5A.x_lm358.sw4 
         RON    1            
        ROFF   10.000000E+06 
         ION    0            
        IOFF   -1.000000E-06 


               X_U5B.x_lm358.sw2 
         RON    1            
        ROFF   10.000000E+06 
         ION    0            
        IOFF   -1.000000E-06 


               X_U5B.x_lm358.sw1 
         RON    1            
        ROFF   10.000000E+06 
         ION   -1.000000E-06 
        IOFF    0            


               X_U5B.x_lm358.sw3 
         RON    1            
        ROFF   10.000000E+06 
         ION   -1.000000E-06 
        IOFF    0            


               X_U5B.x_lm358.sw4 
         RON    1            
        ROFF   10.000000E+06 
         ION    0            
        IOFF   -1.000000E-06 


               X_U6A.x_lm358.sw2 
         RON    1            
        ROFF   10.000000E+06 
         ION    0            
        IOFF   -1.000000E-06 


               X_U6A.x_lm358.sw1 
         RON    1            
        ROFF   10.000000E+06 
         ION   -1.000000E-06 
        IOFF    0            


               X_U6A.x_lm358.sw3 
         RON    1            
        ROFF   10.000000E+06 
         ION   -1.000000E-06 
        IOFF    0            


               X_U6A.x_lm358.sw4 
         RON    1            
        ROFF   10.000000E+06 
         ION    0            
        IOFF   -1.000000E-06 


**** 05/22/23 16:17:11 **** PSpice 22.1.0 (9 December 2022) *** ID# 0 ********

 ** Profile: "SCHEMATIC1-tranzi"  [ C:\Miruna\PROIECT_ORCAD\Proiect-PSpiceFiles\SCHEMATIC1\tranzi.sim ] 


 ****     INITIAL TRANSIENT SOLUTION       TEMPERATURE =   27.000 DEG C

 ****     CURRENT STEP                     PARAM R =   35.0000E+03


******************************************************************************



 NODE   VOLTAGE     NODE   VOLTAGE     NODE   VOLTAGE     NODE   VOLTAGE


(  OUT)   16.2350  (  VCC)   17.0000  ( -VCC)  -17.0000  ( REF1)    2.2932      

( REF2)   10.2070  (N00075)     .6232 (N00177)    2.1449 (N00390)    2.1440     

(N00477)    1.3728 (N00618)    1.3722 (N00681)    -.2672 (N00786)   11.7760     

(N01788)     .9684 (N01792)     .0508 (N02007)    1.9584 (N02701)    2.2941     

(N03121)   10.2100 (N12559)    4.0000 (X_U4A.x_lm358.6)   -1.4950               

(X_U4A.x_lm358.7)   18.2650           (X_U4A.x_lm358.8)   18.2650               

(X_U4A.x_lm358.9)    0.0000           (X_U4A.x_lm358.a)   16.9590               

(X_U4A.x_lm358.b)    -.0406           (X_U4B.x_lm358.6) 63.56E-06               

(X_U4B.x_lm358.7)    -.3132           (X_U4B.x_lm358.8)    -.3132               

(X_U4B.x_lm358.9)    0.0000           (X_U4B.x_lm358.a) 922.8E-06               

(X_U4B.x_lm358.b)  -16.9990           (X_U5A.x_lm358.6)-415.2E-06               

(X_U5A.x_lm358.7)    2.1826           (X_U5A.x_lm358.8)    2.1826               

(X_U5A.x_lm358.9)    0.0000           (X_U5A.x_lm358.a)   16.9990               

(X_U5A.x_lm358.b)-772.9E-06           (X_U5B.x_lm358.6)    -.0019               

(X_U5B.x_lm358.7)   10.1280           (X_U5B.x_lm358.8)   10.1280               

(X_U5B.x_lm358.9)    0.0000           (X_U5B.x_lm358.a)     .0016               

(X_U5B.x_lm358.b)  -16.9980           (X_U6A.x_lm358.6)-445.5E-06               

(X_U6A.x_lm358.7)    2.3392           (X_U6A.x_lm358.8)    2.3392               

(X_U6A.x_lm358.9)    0.0000           (X_U6A.x_lm358.a)   16.9990               

(X_U6A.x_lm358.b)-922.6E-06           (X_U4A.x_lm358.10)     .3724              

(X_U4A.x_lm358.11)  -16.9210          (X_U4A.x_lm358.12)  -17.0000              

(X_U4A.x_lm358.13)     .3446          (X_U4A.x_lm358.14)     .3724              

(X_U4A.x_lm358.53)   15.5000          (X_U4A.x_lm358.54)  -16.1780              

(X_U4A.x_lm358.90)   40.6130          (X_U4A.x_lm358.91)   40.0000              

(X_U4A.x_lm358.92)  -40.0000          (X_U4A.x_lm358.99)    0.0000              

(X_U4B.x_lm358.10)    1.9799          (X_U4B.x_lm358.11)  -16.9600              

(X_U4B.x_lm358.12)  -16.9610          (X_U4B.x_lm358.13)    1.9660              

(X_U4B.x_lm358.14)    1.9662          (X_U4B.x_lm358.53)   15.5000              

(X_U4B.x_lm358.54)  -16.1780          (X_U4B.x_lm358.90)    -.9211              

(X_U4B.x_lm358.91)   40.0000          (X_U4B.x_lm358.92)  -40.0000              

(X_U4B.x_lm358.99)    0.0000          (X_U5A.x_lm358.10)    2.7517              

(X_U5A.x_lm358.11)  -16.9600          (X_U5A.x_lm358.12)  -16.9610              

(X_U5A.x_lm358.13)    2.7379          (X_U5A.x_lm358.14)    2.7382              

(X_U5A.x_lm358.53)   15.5000          (X_U5A.x_lm358.54)  -16.1780              

(X_U5A.x_lm358.90)     .7712          (X_U5A.x_lm358.91)   40.0000              

(X_U5A.x_lm358.92)  -40.0000          (X_U5A.x_lm358.99)    0.0000              

(X_U5B.x_lm358.10)   10.8140          (X_U5B.x_lm358.11)  -16.9610              

(X_U5B.x_lm358.12)  -16.9640          (X_U5B.x_lm358.13)   10.8000              

(X_U5B.x_lm358.14)   10.8010          (X_U5B.x_lm358.53)   15.5000              

(X_U5B.x_lm358.54)  -16.1780          (X_U5B.x_lm358.90)   -1.5699              

(X_U5B.x_lm358.91)   40.0000          (X_U5B.x_lm358.92)  -40.0000              

(X_U5B.x_lm358.99)    0.0000          (X_U6A.x_lm358.10)    2.9009              

(X_U6A.x_lm358.11)  -16.9600          (X_U6A.x_lm358.12)  -16.9610              

(X_U6A.x_lm358.13)    2.8870          (X_U6A.x_lm358.14)    2.8873              

(X_U6A.x_lm358.53)   15.5000          (X_U6A.x_lm358.54)  -16.1780              

(X_U6A.x_lm358.90)     .9209          (X_U6A.x_lm358.91)   40.0000              

(X_U6A.x_lm358.92)  -40.0000          (X_U6A.x_lm358.99)    0.0000          




    VOLTAGE SOURCE CURRENTS
    NAME         CURRENT

    V_V1        -1.217E-01
    V_V2         2.129E-02
    V_V3        -2.212E-01
    X_U4A.x_lm358.vb  -1.495E-05
    X_U4A.x_lm358.vc  -1.745E-03
    X_U4A.x_lm358.ve   3.463E-11
    X_U4A.x_lm358.vlim   4.061E-02
    X_U4A.x_lm358.vlp   1.574E-05
    X_U4A.x_lm358.vln  -8.062E-11
    X_U4B.x_lm358.vb   6.356E-10
    X_U4B.x_lm358.vc   1.577E-11
    X_U4B.x_lm358.ve   1.813E-11
    X_U4B.x_lm358.vlim  -9.211E-04
    X_U4B.x_lm358.vlp  -4.092E-11
    X_U4B.x_lm358.vln  -3.908E-11
    X_U5A.x_lm358.vb  -4.152E-09
    X_U5A.x_lm358.vc   1.336E-11
    X_U5A.x_lm358.ve   2.054E-11
    X_U5A.x_lm358.vlim   7.712E-04
    X_U5A.x_lm358.vlp  -3.923E-11
    X_U5A.x_lm358.vln  -4.078E-11
    X_U5B.x_lm358.vb  -1.901E-08
    X_U5B.x_lm358.vc   5.294E-12
    X_U5B.x_lm358.ve   2.860E-11
    X_U5B.x_lm358.vlim  -1.570E-03
    X_U5B.x_lm358.vlp  -4.157E-11
    X_U5B.x_lm358.vln  -3.843E-11
    X_U6A.x_lm358.vb  -4.455E-09
    X_U6A.x_lm358.vc   1.321E-11
    X_U6A.x_lm358.ve   2.069E-11
    X_U6A.x_lm358.vlim   9.209E-04
    X_U6A.x_lm358.vlp  -3.908E-11
    X_U6A.x_lm358.vln  -4.093E-11

    TOTAL POWER DISSIPATION   3.32E+00  WATTS


**** 05/22/23 16:17:11 **** PSpice 22.1.0 (9 December 2022) *** ID# 0 ********

 ** Profile: "SCHEMATIC1-tranzi"  [ C:\Miruna\PROIECT_ORCAD\Proiect-PSpiceFiles\SCHEMATIC1\tranzi.sim ] 


 ****     INITIAL TRANSIENT SOLUTION       TEMPERATURE =   27.000 DEG C

 ****     CURRENT STEP                     PARAM R =   34.9000E+03


******************************************************************************



 NODE   VOLTAGE     NODE   VOLTAGE     NODE   VOLTAGE     NODE   VOLTAGE


(  OUT)   16.2350  (  VCC)   17.0000  ( -VCC)  -17.0000  ( REF1)    2.2932      

( REF2)   10.2070  (N00075)     .6232 (N00177)    2.1804 (N00390)    2.1795     

(N00477)    1.3955 (N00618)    1.3949 (N00681)    -.2041 (N00786)   11.7760     

(N01788)     .9684 (N01792)     .0508 (N02007)    1.9584 (N02701)    2.2941     

(N03121)   10.2100 (N12559)    4.0000 (X_U4A.x_lm358.6)   -1.4941               

(X_U4A.x_lm358.7)   18.2650           (X_U4A.x_lm358.8)   18.2650               

(X_U4A.x_lm358.9)    0.0000           (X_U4A.x_lm358.a)   16.9590               

(X_U4A.x_lm358.b)    -.0406           (X_U4B.x_lm358.6) 51.34E-06               

(X_U4B.x_lm358.7)    -.2490           (X_U4B.x_lm358.8)    -.2490               

(X_U4B.x_lm358.9)    0.0000           (X_U4B.x_lm358.a) 900.1E-06               

(X_U4B.x_lm358.b)  -16.9990           (X_U5A.x_lm358.6)-422.1E-06               

(X_U5A.x_lm358.7)    2.2187           (X_U5A.x_lm358.8)    2.2187               

(X_U5A.x_lm358.9)    0.0000           (X_U5A.x_lm358.a)   16.9990               

(X_U5A.x_lm358.b)-785.6E-06           (X_U5B.x_lm358.6)    -.0019               

(X_U5B.x_lm358.7)   10.1280           (X_U5B.x_lm358.8)   10.1280               

(X_U5B.x_lm358.9)    0.0000           (X_U5B.x_lm358.a)     .0016               

(X_U5B.x_lm358.b)  -16.9980           (X_U6A.x_lm358.6)-445.1E-06               

(X_U6A.x_lm358.7)    2.3381           (X_U6A.x_lm358.8)    2.3381               

(X_U6A.x_lm358.9)    0.0000           (X_U6A.x_lm358.a)   16.9990               

(X_U6A.x_lm358.b)-899.9E-06           (X_U4A.x_lm358.10)     .4355              

(X_U4A.x_lm358.11)  -16.9210          (X_U4A.x_lm358.12)  -17.0000              

(X_U4A.x_lm358.13)     .4077          (X_U4A.x_lm358.14)     .4355              

(X_U4A.x_lm358.53)   15.5000          (X_U4A.x_lm358.54)  -16.1780              

(X_U4A.x_lm358.90)   40.6130          (X_U4A.x_lm358.91)   40.0000              

(X_U4A.x_lm358.92)  -40.0000          (X_U4A.x_lm358.99)    0.0000              

(X_U4B.x_lm358.10)    2.0026          (X_U4B.x_lm358.11)  -16.9600              

(X_U4B.x_lm358.12)  -16.9610          (X_U4B.x_lm358.13)    1.9887              

(X_U4B.x_lm358.14)    1.9890          (X_U4B.x_lm358.53)   15.5000              

(X_U4B.x_lm358.54)  -16.1780          (X_U4B.x_lm358.90)    -.8984              

(X_U4B.x_lm358.91)   40.0000          (X_U4B.x_lm358.92)  -40.0000              

(X_U4B.x_lm358.99)    0.0000          (X_U5A.x_lm358.10)    2.7872              

(X_U5A.x_lm358.11)  -16.9600          (X_U5A.x_lm358.12)  -16.9610              

(X_U5A.x_lm358.13)    2.7733          (X_U5A.x_lm358.14)    2.7736              

(X_U5A.x_lm358.53)   15.5000          (X_U5A.x_lm358.54)  -16.1780              

(X_U5A.x_lm358.90)     .7839          (X_U5A.x_lm358.91)   40.0000              

(X_U5A.x_lm358.92)  -40.0000          (X_U5A.x_lm358.99)    0.0000              

(X_U5B.x_lm358.10)   10.8140          (X_U5B.x_lm358.11)  -16.9610              

(X_U5B.x_lm358.12)  -16.9640          (X_U5B.x_lm358.13)   10.8000              

(X_U5B.x_lm358.14)   10.8010          (X_U5B.x_lm358.53)   15.5000              

(X_U5B.x_lm358.54)  -16.1780          (X_U5B.x_lm358.90)   -1.5699              

(X_U5B.x_lm358.91)   40.0000          (X_U5B.x_lm358.92)  -40.0000              

(X_U5B.x_lm358.99)    0.0000          (X_U6A.x_lm358.10)    2.9009              

(X_U6A.x_lm358.11)  -16.9600          (X_U6A.x_lm358.12)  -16.9610              

(X_U6A.x_lm358.13)    2.8870          (X_U6A.x_lm358.14)    2.8873              

(X_U6A.x_lm358.53)   15.5000          (X_U6A.x_lm358.54)  -16.1780              

(X_U6A.x_lm358.90)     .8982          (X_U6A.x_lm358.91)   40.0000              

(X_U6A.x_lm358.92)  -40.0000          (X_U6A.x_lm358.99)    0.0000          




    VOLTAGE SOURCE CURRENTS
    NAME         CURRENT

    V_V1        -1.216E-01
    V_V2         2.127E-02
    V_V3        -2.212E-01
    X_U4A.x_lm358.vb  -1.494E-05
    X_U4A.x_lm358.vc  -1.745E-03
    X_U4A.x_lm358.ve   3.463E-11
    X_U4A.x_lm358.vlim   4.061E-02
    X_U4A.x_lm358.vlp   1.573E-05
    X_U4A.x_lm358.vln  -8.062E-11
    X_U4B.x_lm358.vb   5.134E-10
    X_U4B.x_lm358.vc   1.570E-11
    X_U4B.x_lm358.ve   1.819E-11
    X_U4B.x_lm358.vlim  -8.984E-04
    X_U4B.x_lm358.vlp  -4.090E-11
    X_U4B.x_lm358.vln  -3.911E-11
    X_U5A.x_lm358.vb  -4.221E-09
    X_U5A.x_lm358.vc   1.332E-11
    X_U5A.x_lm358.ve   2.057E-11
    X_U5A.x_lm358.vlim   7.839E-04
    X_U5A.x_lm358.vlp  -3.922E-11
    X_U5A.x_lm358.vln  -4.079E-11
    X_U5B.x_lm358.vb  -1.901E-08
    X_U5B.x_lm358.vc   5.294E-12
    X_U5B.x_lm358.ve   2.860E-11
    X_U5B.x_lm358.vlim  -1.570E-03
    X_U5B.x_lm358.vlp  -4.157E-11
    X_U5B.x_lm358.vln  -3.843E-11
    X_U6A.x_lm358.vb  -4.451E-09
    X_U6A.x_lm358.vc   1.321E-11
    X_U6A.x_lm358.ve   2.069E-11
    X_U6A.x_lm358.vlim   8.982E-04
    X_U6A.x_lm358.vlp  -3.910E-11
    X_U6A.x_lm358.vln  -4.090E-11

    TOTAL POWER DISSIPATION   3.32E+00  WATTS


**** 05/22/23 16:17:11 **** PSpice 22.1.0 (9 December 2022) *** ID# 0 ********

 ** Profile: "SCHEMATIC1-tranzi"  [ C:\Miruna\PROIECT_ORCAD\Proiect-PSpiceFiles\SCHEMATIC1\tranzi.sim ] 


 ****     INITIAL TRANSIENT SOLUTION       TEMPERATURE =   27.000 DEG C

 ****     CURRENT STEP                     PARAM R =   34.8000E+03


******************************************************************************



 NODE   VOLTAGE     NODE   VOLTAGE     NODE   VOLTAGE     NODE   VOLTAGE


(  OUT)   16.2350  (  VCC)   17.0000  ( -VCC)  -17.0000  ( REF1)    2.2932      

( REF2)   10.2070  (N00075)     .6232 (N00177)    2.2159 (N00390)    2.2150     

(N00477)    1.4183 (N00618)    1.4176 (N00681)    -.1409 (N00786)   11.7760     

(N01788)     .9684 (N01792)     .0508 (N02007)    1.9584 (N02701)    2.2941     

(N03121)   10.2100 (N12559)    4.0000 (X_U4A.x_lm358.6)   -1.4933               

(X_U4A.x_lm358.7)   18.2650           (X_U4A.x_lm358.8)   18.2650               

(X_U4A.x_lm358.9)    0.0000           (X_U4A.x_lm358.a)   16.9590               

(X_U4A.x_lm358.b)    -.0406           (X_U4B.x_lm358.6) 39.10E-06               

(X_U4B.x_lm358.7)    -.1847           (X_U4B.x_lm358.8)    -.1847               

(X_U4B.x_lm358.9)    0.0000           (X_U4B.x_lm358.a) 877.4E-06               

(X_U4B.x_lm358.b)  -16.9990           (X_U5A.x_lm358.6)-428.9E-06               

(X_U5A.x_lm358.7)    2.2549           (X_U5A.x_lm358.8)    2.2549               

(X_U5A.x_lm358.9)    0.0000           (X_U5A.x_lm358.a)   16.9990               

(X_U5A.x_lm358.b)-798.4E-06           (X_U5B.x_lm358.6)    -.0019               

(X_U5B.x_lm358.7)   10.1280           (X_U5B.x_lm358.8)   10.1280               

(X_U5B.x_lm358.9)    0.0000           (X_U5B.x_lm358.a)     .0016               

(X_U5B.x_lm358.b)  -16.9980           (X_U6A.x_lm358.6)-444.8E-06               

(X_U6A.x_lm358.7)    2.3369           (X_U6A.x_lm358.8)    2.3369               

(X_U6A.x_lm358.9)    0.0000           (X_U6A.x_lm358.a)   16.9990               

(X_U6A.x_lm358.b)-877.2E-06           (X_U4A.x_lm358.10)     .4986              

(X_U4A.x_lm358.11)  -16.9210          (X_U4A.x_lm358.12)  -17.0000              

(X_U4A.x_lm358.13)     .4708          (X_U4A.x_lm358.14)     .4986              

(X_U4A.x_lm358.53)   15.5000          (X_U4A.x_lm358.54)  -16.1780              

(X_U4A.x_lm358.90)   40.6130          (X_U4A.x_lm358.91)   40.0000              

(X_U4A.x_lm358.92)  -40.0000          (X_U4A.x_lm358.99)    0.0000              

(X_U4B.x_lm358.10)    2.0254          (X_U4B.x_lm358.11)  -16.9600              

(X_U4B.x_lm358.12)  -16.9610          (X_U4B.x_lm358.13)    2.0115              

(X_U4B.x_lm358.14)    2.0117          (X_U4B.x_lm358.53)   15.5000              

(X_U4B.x_lm358.54)  -16.1780          (X_U4B.x_lm358.90)    -.8757              

(X_U4B.x_lm358.91)   40.0000          (X_U4B.x_lm358.92)  -40.0000              

(X_U4B.x_lm358.99)    0.0000          (X_U5A.x_lm358.10)    2.8227              

(X_U5A.x_lm358.11)  -16.9600          (X_U5A.x_lm358.12)  -16.9610              

(X_U5A.x_lm358.13)    2.8088          (X_U5A.x_lm358.14)    2.8092              

(X_U5A.x_lm358.53)   15.5000          (X_U5A.x_lm358.54)  -16.1780              

(X_U5A.x_lm358.90)     .7967          (X_U5A.x_lm358.91)   40.0000              

(X_U5A.x_lm358.92)  -40.0000          (X_U5A.x_lm358.99)    0.0000              

(X_U5B.x_lm358.10)   10.8140          (X_U5B.x_lm358.11)  -16.9610              

(X_U5B.x_lm358.12)  -16.9640          (X_U5B.x_lm358.13)   10.8000              

(X_U5B.x_lm358.14)   10.8010          (X_U5B.x_lm358.53)   15.5000              

(X_U5B.x_lm358.54)  -16.1780          (X_U5B.x_lm358.90)   -1.5699              

(X_U5B.x_lm358.91)   40.0000          (X_U5B.x_lm358.92)  -40.0000              

(X_U5B.x_lm358.99)    0.0000          (X_U6A.x_lm358.10)    2.9009              

(X_U6A.x_lm358.11)  -16.9600          (X_U6A.x_lm358.12)  -16.9610              

(X_U6A.x_lm358.13)    2.8870          (X_U6A.x_lm358.14)    2.8873              

(X_U6A.x_lm358.53)   15.5000          (X_U6A.x_lm358.54)  -16.1780              

(X_U6A.x_lm358.90)     .8755          (X_U6A.x_lm358.91)   40.0000              

(X_U6A.x_lm358.92)  -40.0000          (X_U6A.x_lm358.99)    0.0000          




    VOLTAGE SOURCE CURRENTS
    NAME         CURRENT

    V_V1        -1.216E-01
    V_V2         2.125E-02
    V_V3        -2.212E-01
    X_U4A.x_lm358.vb  -1.493E-05
    X_U4A.x_lm358.vc  -1.745E-03
    X_U4A.x_lm358.ve   3.463E-11
    X_U4A.x_lm358.vlim   4.061E-02
    X_U4A.x_lm358.vlp   1.572E-05
    X_U4A.x_lm358.vln  -8.062E-11
    X_U4B.x_lm358.vb   3.910E-10
    X_U4B.x_lm358.vc   1.564E-11
    X_U4B.x_lm358.ve   1.825E-11
    X_U4B.x_lm358.vlim  -8.757E-04
    X_U4B.x_lm358.vlp  -4.088E-11
    X_U4B.x_lm358.vln  -3.913E-11
    X_U5A.x_lm358.vb  -4.289E-09
    X_U5A.x_lm358.vc   1.329E-11
    X_U5A.x_lm358.ve   2.061E-11
    X_U5A.x_lm358.vlim   7.967E-04
    X_U5A.x_lm358.vlp  -3.920E-11
    X_U5A.x_lm358.vln  -4.080E-11
    X_U5B.x_lm358.vb  -1.901E-08
    X_U5B.x_lm358.vc   5.294E-12
    X_U5B.x_lm358.ve   2.860E-11
    X_U5B.x_lm358.vlim  -1.570E-03
    X_U5B.x_lm358.vlp  -4.157E-11
    X_U5B.x_lm358.vln  -3.843E-11
    X_U6A.x_lm358.vb  -4.448E-09
    X_U6A.x_lm358.vc   1.321E-11
    X_U6A.x_lm358.ve   2.069E-11
    X_U6A.x_lm358.vlim   8.755E-04
    X_U6A.x_lm358.vlp  -3.913E-11
    X_U6A.x_lm358.vln  -4.088E-11

    TOTAL POWER DISSIPATION   3.32E+00  WATTS


**** 05/22/23 16:17:11 **** PSpice 22.1.0 (9 December 2022) *** ID# 0 ********

 ** Profile: "SCHEMATIC1-tranzi"  [ C:\Miruna\PROIECT_ORCAD\Proiect-PSpiceFiles\SCHEMATIC1\tranzi.sim ] 


 ****     INITIAL TRANSIENT SOLUTION       TEMPERATURE =   27.000 DEG C

 ****     CURRENT STEP                     PARAM R =   34.7000E+03


******************************************************************************



 NODE   VOLTAGE     NODE   VOLTAGE     NODE   VOLTAGE     NODE   VOLTAGE


(  OUT)   16.2350  (  VCC)   17.0000  ( -VCC)  -17.0000  ( REF1)    2.2932      

( REF2)   10.2070  (N00075)     .6232 (N00177)    2.2515 (N00390)    2.2506     

(N00477)    1.4410 (N00618)    1.4404 (N00681)    -.0777 (N00786)   11.7760     

(N01788)     .9684 (N01792)     .0508 (N02007)    1.9584 (N02701)    2.2941     

(N03121)   10.2100 (N12559)    4.0000 (X_U4A.x_lm358.6)   -1.4924               

(X_U4A.x_lm358.7)   18.2650           (X_U4A.x_lm358.8)   18.2650               

(X_U4A.x_lm358.9)    0.0000           (X_U4A.x_lm358.a)   16.9590               

(X_U4A.x_lm358.b)    -.0406           (X_U4B.x_lm358.6) 26.86E-06               

(X_U4B.x_lm358.7)    -.1203           (X_U4B.x_lm358.8)    -.1203               

(X_U4B.x_lm358.9)    0.0000           (X_U4B.x_lm358.a) 854.6E-06               

(X_U4B.x_lm358.b)  -16.9990           (X_U5A.x_lm358.6)-435.8E-06               

(X_U5A.x_lm358.7)    2.2910           (X_U5A.x_lm358.8)    2.2910               

(X_U5A.x_lm358.9)    0.0000           (X_U5A.x_lm358.a)   16.9990               

(X_U5A.x_lm358.b)-811.2E-06           (X_U5B.x_lm358.6)    -.0019               

(X_U5B.x_lm358.7)   10.1280           (X_U5B.x_lm358.8)   10.1280               

(X_U5B.x_lm358.9)    0.0000           (X_U5B.x_lm358.a)     .0016               

(X_U5B.x_lm358.b)  -16.9980           (X_U6A.x_lm358.6)-444.5E-06               

(X_U6A.x_lm358.7)    2.3358           (X_U6A.x_lm358.8)    2.3358               

(X_U6A.x_lm358.9)    0.0000           (X_U6A.x_lm358.a)   16.9990               

(X_U6A.x_lm358.b)-854.4E-06           (X_U4A.x_lm358.10)     .5618              

(X_U4A.x_lm358.11)  -16.9210          (X_U4A.x_lm358.12)  -17.0000              

(X_U4A.x_lm358.13)     .5341          (X_U4A.x_lm358.14)     .5618              

(X_U4A.x_lm358.53)   15.5000          (X_U4A.x_lm358.54)  -16.1780              

(X_U4A.x_lm358.90)   40.6130          (X_U4A.x_lm358.91)   40.0000              

(X_U4A.x_lm358.92)  -40.0000          (X_U4A.x_lm358.99)    0.0000              

(X_U4B.x_lm358.10)    2.0481          (X_U4B.x_lm358.11)  -16.9600              

(X_U4B.x_lm358.12)  -16.9610          (X_U4B.x_lm358.13)    2.0342              

(X_U4B.x_lm358.14)    2.0344          (X_U4B.x_lm358.53)   15.5000              

(X_U4B.x_lm358.54)  -16.1780          (X_U4B.x_lm358.90)    -.8529              

(X_U4B.x_lm358.91)   40.0000          (X_U4B.x_lm358.92)  -40.0000              

(X_U4B.x_lm358.99)    0.0000          (X_U5A.x_lm358.10)    2.8583              

(X_U5A.x_lm358.11)  -16.9600          (X_U5A.x_lm358.12)  -16.9610              

(X_U5A.x_lm358.13)    2.8444          (X_U5A.x_lm358.14)    2.8447              

(X_U5A.x_lm358.53)   15.5000          (X_U5A.x_lm358.54)  -16.1780              

(X_U5A.x_lm358.90)     .8095          (X_U5A.x_lm358.91)   40.0000              

(X_U5A.x_lm358.92)  -40.0000          (X_U5A.x_lm358.99)    0.0000              

(X_U5B.x_lm358.10)   10.8140          (X_U5B.x_lm358.11)  -16.9610              

(X_U5B.x_lm358.12)  -16.9640          (X_U5B.x_lm358.13)   10.8000              

(X_U5B.x_lm358.14)   10.8010          (X_U5B.x_lm358.53)   15.5000              

(X_U5B.x_lm358.54)  -16.1780          (X_U5B.x_lm358.90)   -1.5699              

(X_U5B.x_lm358.91)   40.0000          (X_U5B.x_lm358.92)  -40.0000              

(X_U5B.x_lm358.99)    0.0000          (X_U6A.x_lm358.10)    2.9009              

(X_U6A.x_lm358.11)  -16.9600          (X_U6A.x_lm358.12)  -16.9610              

(X_U6A.x_lm358.13)    2.8870          (X_U6A.x_lm358.14)    2.8873              

(X_U6A.x_lm358.53)   15.5000          (X_U6A.x_lm358.54)  -16.1780              

(X_U6A.x_lm358.90)     .8527          (X_U6A.x_lm358.91)   40.0000              

(X_U6A.x_lm358.92)  -40.0000          (X_U6A.x_lm358.99)    0.0000          




    VOLTAGE SOURCE CURRENTS
    NAME         CURRENT

    V_V1        -1.216E-01
    V_V2         2.122E-02
    V_V3        -2.212E-01
    X_U4A.x_lm358.vb  -1.492E-05
    X_U4A.x_lm358.vc  -1.745E-03
    X_U4A.x_lm358.ve   3.463E-11
    X_U4A.x_lm358.vlim   4.061E-02
    X_U4A.x_lm358.vlp   1.571E-05
    X_U4A.x_lm358.vln  -8.062E-11
    X_U4B.x_lm358.vb   2.686E-10
    X_U4B.x_lm358.vc   1.558E-11
    X_U4B.x_lm358.ve   1.832E-11
    X_U4B.x_lm358.vlim  -8.529E-04
    X_U4B.x_lm358.vlp  -4.085E-11
    X_U4B.x_lm358.vln  -3.915E-11
    X_U5A.x_lm358.vb  -4.358E-09
    X_U5A.x_lm358.vc   1.325E-11
    X_U5A.x_lm358.ve   2.064E-11
    X_U5A.x_lm358.vlim   8.095E-04
    X_U5A.x_lm358.vlp  -3.919E-11
    X_U5A.x_lm358.vln  -4.081E-11
    X_U5B.x_lm358.vb  -1.901E-08
    X_U5B.x_lm358.vc   5.294E-12
    X_U5B.x_lm358.ve   2.860E-11
    X_U5B.x_lm358.vlim  -1.570E-03
    X_U5B.x_lm358.vlp  -4.157E-11
    X_U5B.x_lm358.vln  -3.843E-11
    X_U6A.x_lm358.vb  -4.445E-09
    X_U6A.x_lm358.vc   1.321E-11
    X_U6A.x_lm358.ve   2.069E-11
    X_U6A.x_lm358.vlim   8.527E-04
    X_U6A.x_lm358.vlp  -3.915E-11
    X_U6A.x_lm358.vln  -4.086E-11

    TOTAL POWER DISSIPATION   3.32E+00  WATTS


**** 05/22/23 16:17:11 **** PSpice 22.1.0 (9 December 2022) *** ID# 0 ********

 ** Profile: "SCHEMATIC1-tranzi"  [ C:\Miruna\PROIECT_ORCAD\Proiect-PSpiceFiles\SCHEMATIC1\tranzi.sim ] 


 ****     INITIAL TRANSIENT SOLUTION       TEMPERATURE =   27.000 DEG C

 ****     CURRENT STEP                     PARAM R =   34.6000E+03


******************************************************************************



 NODE   VOLTAGE     NODE   VOLTAGE     NODE   VOLTAGE     NODE   VOLTAGE


(  OUT)   16.2350  (  VCC)   17.0000  ( -VCC)  -17.0000  ( REF1)    2.2932      

( REF2)   10.2070  (N00075)     .6232 (N00177)    2.2871 (N00390)    2.2861     

(N00477)    1.4638 (N00618)    1.4632 (N00681)    -.0144 (N00786)   11.7760     

(N01788)     .9684 (N01792)     .0508 (N02007)    1.9584 (N02701)    2.2941     

(N03121)   10.2100 (N12559)    4.0000 (X_U4A.x_lm358.6)   -1.4916               

(X_U4A.x_lm358.7)   18.2650           (X_U4A.x_lm358.8)   18.2650               

(X_U4A.x_lm358.9)    0.0000           (X_U4A.x_lm358.a)   16.9590               

(X_U4A.x_lm358.b)    -.0406           (X_U4B.x_lm358.6) 14.60E-06               

(X_U4B.x_lm358.7)    -.0559           (X_U4B.x_lm358.8)    -.0559               

(X_U4B.x_lm358.9)    0.0000           (X_U4B.x_lm358.a) 831.9E-06               

(X_U4B.x_lm358.b)  -16.9990           (X_U5A.x_lm358.6)-442.7E-06               

(X_U5A.x_lm358.7)    2.3273           (X_U5A.x_lm358.8)    2.3273               

(X_U5A.x_lm358.9)    0.0000           (X_U5A.x_lm358.a)   16.9990               

(X_U5A.x_lm358.b)-824.0E-06           (X_U5B.x_lm358.6)    -.0019               

(X_U5B.x_lm358.7)   10.1280           (X_U5B.x_lm358.8)   10.1280               

(X_U5B.x_lm358.9)    0.0000           (X_U5B.x_lm358.a)     .0016               

(X_U5B.x_lm358.b)  -16.9980           (X_U6A.x_lm358.6)-444.2E-06               

(X_U6A.x_lm358.7)    2.3347           (X_U6A.x_lm358.8)    2.3347               

(X_U6A.x_lm358.9)    0.0000           (X_U6A.x_lm358.a)   16.9990               

(X_U6A.x_lm358.b)-831.7E-06           (X_U4A.x_lm358.10)     .6251              

(X_U4A.x_lm358.11)  -16.9210          (X_U4A.x_lm358.12)  -17.0000              

(X_U4A.x_lm358.13)     .5974          (X_U4A.x_lm358.14)     .6251              

(X_U4A.x_lm358.53)   15.5000          (X_U4A.x_lm358.54)  -16.1780              

(X_U4A.x_lm358.90)   40.6130          (X_U4A.x_lm358.91)   40.0000              

(X_U4A.x_lm358.92)  -40.0000          (X_U4A.x_lm358.99)    0.0000              

(X_U4B.x_lm358.10)    2.0709          (X_U4B.x_lm358.11)  -16.9600              

(X_U4B.x_lm358.12)  -16.9610          (X_U4B.x_lm358.13)    2.0570              

(X_U4B.x_lm358.14)    2.0572          (X_U4B.x_lm358.53)   15.5000              

(X_U4B.x_lm358.54)  -16.1780          (X_U4B.x_lm358.90)    -.8302              

(X_U4B.x_lm358.91)   40.0000          (X_U4B.x_lm358.92)  -40.0000              

(X_U4B.x_lm358.99)    0.0000          (X_U5A.x_lm358.10)    2.8938              

(X_U5A.x_lm358.11)  -16.9600          (X_U5A.x_lm358.12)  -16.9610              

(X_U5A.x_lm358.13)    2.8799          (X_U5A.x_lm358.14)    2.8803              

(X_U5A.x_lm358.53)   15.5000          (X_U5A.x_lm358.54)  -16.1780              

(X_U5A.x_lm358.90)     .8223          (X_U5A.x_lm358.91)   40.0000              

(X_U5A.x_lm358.92)  -40.0000          (X_U5A.x_lm358.99)    0.0000              

(X_U5B.x_lm358.10)   10.8140          (X_U5B.x_lm358.11)  -16.9610              

(X_U5B.x_lm358.12)  -16.9640          (X_U5B.x_lm358.13)   10.8000              

(X_U5B.x_lm358.14)   10.8010          (X_U5B.x_lm358.53)   15.5000              

(X_U5B.x_lm358.54)  -16.1780          (X_U5B.x_lm358.90)   -1.5699              

(X_U5B.x_lm358.91)   40.0000          (X_U5B.x_lm358.92)  -40.0000              

(X_U5B.x_lm358.99)    0.0000          (X_U6A.x_lm358.10)    2.9009              

(X_U6A.x_lm358.11)  -16.9600          (X_U6A.x_lm358.12)  -16.9610              

(X_U6A.x_lm358.13)    2.8870          (X_U6A.x_lm358.14)    2.8873              

(X_U6A.x_lm358.53)   15.5000          (X_U6A.x_lm358.54)  -16.1780              

(X_U6A.x_lm358.90)     .8300          (X_U6A.x_lm358.91)   40.0000              

(X_U6A.x_lm358.92)  -40.0000          (X_U6A.x_lm358.99)    0.0000          




    VOLTAGE SOURCE CURRENTS
    NAME         CURRENT

    V_V1        -1.216E-01
    V_V2         2.120E-02
    V_V3        -2.212E-01
    X_U4A.x_lm358.vb  -1.492E-05
    X_U4A.x_lm358.vc  -1.745E-03
    X_U4A.x_lm358.ve   3.463E-11
    X_U4A.x_lm358.vlim   4.061E-02
    X_U4A.x_lm358.vlp   1.570E-05
    X_U4A.x_lm358.vln  -8.062E-11
    X_U4B.x_lm358.vb   1.460E-10
    X_U4B.x_lm358.vc   1.552E-11
    X_U4B.x_lm358.ve   1.838E-11
    X_U4B.x_lm358.vlim  -8.302E-04
    X_U4B.x_lm358.vlp  -4.083E-11
    X_U4B.x_lm358.vln  -3.917E-11
    X_U5A.x_lm358.vb  -4.427E-09
    X_U5A.x_lm358.vc   1.321E-11
    X_U5A.x_lm358.ve   2.068E-11
    X_U5A.x_lm358.vlim   8.223E-04
    X_U5A.x_lm358.vlp  -3.918E-11
    X_U5A.x_lm358.vln  -4.083E-11
    X_U5B.x_lm358.vb  -1.901E-08
    X_U5B.x_lm358.vc   5.294E-12
    X_U5B.x_lm358.ve   2.860E-11
    X_U5B.x_lm358.vlim  -1.570E-03
    X_U5B.x_lm358.vlp  -4.157E-11
    X_U5B.x_lm358.vln  -3.843E-11
    X_U6A.x_lm358.vb  -4.442E-09
    X_U6A.x_lm358.vc   1.321E-11
    X_U6A.x_lm358.ve   2.069E-11
    X_U6A.x_lm358.vlim   8.300E-04
    X_U6A.x_lm358.vlp  -3.917E-11
    X_U6A.x_lm358.vln  -4.083E-11

    TOTAL POWER DISSIPATION   3.31E+00  WATTS


**** 05/22/23 16:17:11 **** PSpice 22.1.0 (9 December 2022) *** ID# 0 ********

 ** Profile: "SCHEMATIC1-tranzi"  [ C:\Miruna\PROIECT_ORCAD\Proiect-PSpiceFiles\SCHEMATIC1\tranzi.sim ] 


 ****     INITIAL TRANSIENT SOLUTION       TEMPERATURE =   27.000 DEG C

 ****     CURRENT STEP                     PARAM R =   34.5000E+03


******************************************************************************



 NODE   VOLTAGE     NODE   VOLTAGE     NODE   VOLTAGE     NODE   VOLTAGE


(  OUT)   16.2350  (  VCC)   17.0000  ( -VCC)  -17.0000  ( REF1)    2.2932      

( REF2)   10.2070  (N00075)     .6232 (N00177)    2.3227 (N00390)    2.3217     

(N00477)    1.4866 (N00618)    1.4859 (N00681)     .0490 (N00786)   11.7760     

(N01788)     .9684 (N01792)     .0508 (N02007)    1.9584 (N02701)    2.2941     

(N03121)   10.2100 (N12559)    4.0000 (X_U4A.x_lm358.6)   -1.4907               

(X_U4A.x_lm358.7)   18.2650           (X_U4A.x_lm358.8)   18.2650               

(X_U4A.x_lm358.9)    0.0000           (X_U4A.x_lm358.a)   16.9590               

(X_U4A.x_lm358.b)    -.0406           (X_U4B.x_lm358.6) 2.329E-06               

(X_U4B.x_lm358.7)     .0086           (X_U4B.x_lm358.8)     .0086               

(X_U4B.x_lm358.9)    0.0000           (X_U4B.x_lm358.a) 809.1E-06               

(X_U4B.x_lm358.b)  -16.9990           (X_U5A.x_lm358.6)-449.6E-06               

(X_U5A.x_lm358.7)    2.3635           (X_U5A.x_lm358.8)    2.3635               

(X_U5A.x_lm358.9)    0.0000           (X_U5A.x_lm358.a)   16.9990               

(X_U5A.x_lm358.b)-836.8E-06           (X_U5B.x_lm358.6)    -.0019               

(X_U5B.x_lm358.7)   10.1280           (X_U5B.x_lm358.8)   10.1280               

(X_U5B.x_lm358.9)    0.0000           (X_U5B.x_lm358.a)     .0016               

(X_U5B.x_lm358.b)  -16.9980           (X_U6A.x_lm358.6)-443.8E-06               

(X_U6A.x_lm358.7)    2.3335           (X_U6A.x_lm358.8)    2.3335               

(X_U6A.x_lm358.9)    0.0000           (X_U6A.x_lm358.a)   16.9990               

(X_U6A.x_lm358.b)-808.9E-06           (X_U4A.x_lm358.10)     .6885              

(X_U4A.x_lm358.11)  -16.9210          (X_U4A.x_lm358.12)  -17.0000              

(X_U4A.x_lm358.13)     .6607          (X_U4A.x_lm358.14)     .6885              

(X_U4A.x_lm358.53)   15.5000          (X_U4A.x_lm358.54)  -16.1780              

(X_U4A.x_lm358.90)   40.6130          (X_U4A.x_lm358.91)   40.0000              

(X_U4A.x_lm358.92)  -40.0000          (X_U4A.x_lm358.99)    0.0000              

(X_U4B.x_lm358.10)    2.0937          (X_U4B.x_lm358.11)  -16.9600              

(X_U4B.x_lm358.12)  -16.9610          (X_U4B.x_lm358.13)    2.0798              

(X_U4B.x_lm358.14)    2.0800          (X_U4B.x_lm358.53)   15.5000              

(X_U4B.x_lm358.54)  -16.1780          (X_U4B.x_lm358.90)    -.8074              

(X_U4B.x_lm358.91)   40.0000          (X_U4B.x_lm358.92)  -40.0000              

(X_U4B.x_lm358.99)    0.0000          (X_U5A.x_lm358.10)    2.9294              

(X_U5A.x_lm358.11)  -16.9600          (X_U5A.x_lm358.12)  -16.9610              

(X_U5A.x_lm358.13)    2.9155          (X_U5A.x_lm358.14)    2.9159              

(X_U5A.x_lm358.53)   15.5000          (X_U5A.x_lm358.54)  -16.1780              

(X_U5A.x_lm358.90)     .8351          (X_U5A.x_lm358.91)   40.0000              

(X_U5A.x_lm358.92)  -40.0000          (X_U5A.x_lm358.99)    0.0000              

(X_U5B.x_lm358.10)   10.8140          (X_U5B.x_lm358.11)  -16.9610              

(X_U5B.x_lm358.12)  -16.9640          (X_U5B.x_lm358.13)   10.8000              

(X_U5B.x_lm358.14)   10.8010          (X_U5B.x_lm358.53)   15.5000              

(X_U5B.x_lm358.54)  -16.1780          (X_U5B.x_lm358.90)   -1.5699              

(X_U5B.x_lm358.91)   40.0000          (X_U5B.x_lm358.92)  -40.0000              

(X_U5B.x_lm358.99)    0.0000          (X_U6A.x_lm358.10)    2.9009              

(X_U6A.x_lm358.11)  -16.9600          (X_U6A.x_lm358.12)  -16.9610              

(X_U6A.x_lm358.13)    2.8870          (X_U6A.x_lm358.14)    2.8873              

(X_U6A.x_lm358.53)   15.5000          (X_U6A.x_lm358.54)  -16.1780              

(X_U6A.x_lm358.90)     .8072          (X_U6A.x_lm358.91)   40.0000              

(X_U6A.x_lm358.92)  -40.0000          (X_U6A.x_lm358.99)    0.0000          




    VOLTAGE SOURCE CURRENTS
    NAME         CURRENT

    V_V1        -1.216E-01
    V_V2         2.118E-02
    V_V3        -2.212E-01
    X_U4A.x_lm358.vb  -1.491E-05
    X_U4A.x_lm358.vc  -1.745E-03
    X_U4A.x_lm358.ve   3.463E-11
    X_U4A.x_lm358.vlim   4.061E-02
    X_U4A.x_lm358.vlp   1.569E-05
    X_U4A.x_lm358.vln  -8.062E-11
    X_U4B.x_lm358.vb   2.329E-11
    X_U4B.x_lm358.vc   1.545E-11
    X_U4B.x_lm358.ve   1.844E-11
    X_U4B.x_lm358.vlim  -8.074E-04
    X_U4B.x_lm358.vlp  -4.081E-11
    X_U4B.x_lm358.vln  -3.920E-11
    X_U5A.x_lm358.vb  -4.496E-09
    X_U5A.x_lm358.vc   1.318E-11
    X_U5A.x_lm358.ve   2.071E-11
    X_U5A.x_lm358.vlim   8.351E-04
    X_U5A.x_lm358.vlp  -3.917E-11
    X_U5A.x_lm358.vln  -4.084E-11
    X_U5B.x_lm358.vb  -1.901E-08
    X_U5B.x_lm358.vc   5.294E-12
    X_U5B.x_lm358.ve   2.860E-11
    X_U5B.x_lm358.vlim  -1.570E-03
    X_U5B.x_lm358.vlp  -4.157E-11
    X_U5B.x_lm358.vln  -3.843E-11
    X_U6A.x_lm358.vb  -4.438E-09
    X_U6A.x_lm358.vc   1.321E-11
    X_U6A.x_lm358.ve   2.069E-11
    X_U6A.x_lm358.vlim   8.072E-04
    X_U6A.x_lm358.vlp  -3.919E-11
    X_U6A.x_lm358.vln  -4.081E-11

    TOTAL POWER DISSIPATION   3.31E+00  WATTS


**** 05/22/23 16:17:11 **** PSpice 22.1.0 (9 December 2022) *** ID# 0 ********

 ** Profile: "SCHEMATIC1-tranzi"  [ C:\Miruna\PROIECT_ORCAD\Proiect-PSpiceFiles\SCHEMATIC1\tranzi.sim ] 


 ****     INITIAL TRANSIENT SOLUTION       TEMPERATURE =   27.000 DEG C

 ****     CURRENT STEP                     PARAM R =   34.4000E+03


******************************************************************************



 NODE   VOLTAGE     NODE   VOLTAGE     NODE   VOLTAGE     NODE   VOLTAGE


(  OUT)   16.2350  (  VCC)   17.0000  ( -VCC)  -17.0000  ( REF1)    2.2932      

( REF2)   10.2070  (N00075)     .6232 (N00177)    2.3584 (N00390)    2.3574     

(N00477)    1.5094 (N00618)    1.5088 (N00681)     .1124 (N00786)   11.7760     

(N01788)     .9684 (N01792)     .0508 (N02007)    1.9584 (N02701)    2.2941     

(N03121)   10.2100 (N12559)    4.0000 (X_U4A.x_lm358.6)   -1.4899               

(X_U4A.x_lm358.7)   18.2650           (X_U4A.x_lm358.8)   18.2650               

(X_U4A.x_lm358.9)    0.0000           (X_U4A.x_lm358.a)   16.9590               

(X_U4A.x_lm358.b)    -.0406           (X_U4B.x_lm358.6)-9.952E-06               

(X_U4B.x_lm358.7)     .0732           (X_U4B.x_lm358.8)     .0732               

(X_U4B.x_lm358.9)    0.0000           (X_U4B.x_lm358.a) 786.3E-06               

(X_U4B.x_lm358.b)  -16.9990           (X_U5A.x_lm358.6)-456.5E-06               

(X_U5A.x_lm358.7)    2.3998           (X_U5A.x_lm358.8)    2.3998               

(X_U5A.x_lm358.9)    0.0000           (X_U5A.x_lm358.a)   16.9990               

(X_U5A.x_lm358.b)-849.6E-06           (X_U5B.x_lm358.6)    -.0019               

(X_U5B.x_lm358.7)   10.1280           (X_U5B.x_lm358.8)   10.1280               

(X_U5B.x_lm358.9)    0.0000           (X_U5B.x_lm358.a)     .0016               

(X_U5B.x_lm358.b)  -16.9980           (X_U6A.x_lm358.6)-443.5E-06               

(X_U6A.x_lm358.7)    2.3324           (X_U6A.x_lm358.8)    2.3324               

(X_U6A.x_lm358.9)    0.0000           (X_U6A.x_lm358.a)   16.9990               

(X_U6A.x_lm358.b)-786.1E-06           (X_U4A.x_lm358.10)     .7519              

(X_U4A.x_lm358.11)  -16.9210          (X_U4A.x_lm358.12)  -17.0000              

(X_U4A.x_lm358.13)     .7241          (X_U4A.x_lm358.14)     .7519              

(X_U4A.x_lm358.53)   15.5000          (X_U4A.x_lm358.54)  -16.1780              

(X_U4A.x_lm358.90)   40.6130          (X_U4A.x_lm358.91)   40.0000              

(X_U4A.x_lm358.92)  -40.0000          (X_U4A.x_lm358.99)    0.0000              

(X_U4B.x_lm358.10)    2.1165          (X_U4B.x_lm358.11)  -16.9600              

(X_U4B.x_lm358.12)  -16.9610          (X_U4B.x_lm358.13)    2.1026              

(X_U4B.x_lm358.14)    2.1028          (X_U4B.x_lm358.53)   15.5000              

(X_U4B.x_lm358.54)  -16.1780          (X_U4B.x_lm358.90)    -.7846              

(X_U4B.x_lm358.91)   40.0000          (X_U4B.x_lm358.92)  -40.0000              

(X_U4B.x_lm358.99)    0.0000          (X_U5A.x_lm358.10)    2.9651              

(X_U5A.x_lm358.11)  -16.9600          (X_U5A.x_lm358.12)  -16.9610              

(X_U5A.x_lm358.13)    2.9512          (X_U5A.x_lm358.14)    2.9515              

(X_U5A.x_lm358.53)   15.5000          (X_U5A.x_lm358.54)  -16.1780              

(X_U5A.x_lm358.90)     .8479          (X_U5A.x_lm358.91)   40.0000              

(X_U5A.x_lm358.92)  -40.0000          (X_U5A.x_lm358.99)    0.0000              

(X_U5B.x_lm358.10)   10.8140          (X_U5B.x_lm358.11)  -16.9610              

(X_U5B.x_lm358.12)  -16.9640          (X_U5B.x_lm358.13)   10.8000              

(X_U5B.x_lm358.14)   10.8010          (X_U5B.x_lm358.53)   15.5000              

(X_U5B.x_lm358.54)  -16.1780          (X_U5B.x_lm358.90)   -1.5699              

(X_U5B.x_lm358.91)   40.0000          (X_U5B.x_lm358.92)  -40.0000              

(X_U5B.x_lm358.99)    0.0000          (X_U6A.x_lm358.10)    2.9009              

(X_U6A.x_lm358.11)  -16.9600          (X_U6A.x_lm358.12)  -16.9610              

(X_U6A.x_lm358.13)    2.8870          (X_U6A.x_lm358.14)    2.8873              

(X_U6A.x_lm358.53)   15.5000          (X_U6A.x_lm358.54)  -16.1780              

(X_U6A.x_lm358.90)     .7844          (X_U6A.x_lm358.91)   40.0000              

(X_U6A.x_lm358.92)  -40.0000          (X_U6A.x_lm358.99)    0.0000          




    VOLTAGE SOURCE CURRENTS
    NAME         CURRENT

    V_V1        -1.216E-01
    V_V2         2.115E-02
    V_V3        -2.212E-01
    X_U4A.x_lm358.vb  -1.490E-05
    X_U4A.x_lm358.vc  -1.745E-03
    X_U4A.x_lm358.ve   3.463E-11
    X_U4A.x_lm358.vlim   4.061E-02
    X_U4A.x_lm358.vlp   1.568E-05
    X_U4A.x_lm358.vln  -8.062E-11
    X_U4B.x_lm358.vb  -9.952E-11
    X_U4B.x_lm358.vc   1.539E-11
    X_U4B.x_lm358.ve   1.851E-11
    X_U4B.x_lm358.vlim  -7.846E-04
    X_U4B.x_lm358.vlp  -4.079E-11
    X_U4B.x_lm358.vln  -3.922E-11
    X_U5A.x_lm358.vb  -4.565E-09
    X_U5A.x_lm358.vc   1.314E-11
    X_U5A.x_lm358.ve   2.075E-11
    X_U5A.x_lm358.vlim   8.479E-04
    X_U5A.x_lm358.vlp  -3.915E-11
    X_U5A.x_lm358.vln  -4.085E-11
    X_U5B.x_lm358.vb  -1.901E-08
    X_U5B.x_lm358.vc   5.294E-12
    X_U5B.x_lm358.ve   2.860E-11
    X_U5B.x_lm358.vlim  -1.570E-03
    X_U5B.x_lm358.vlp  -4.157E-11
    X_U5B.x_lm358.vln  -3.843E-11
    X_U6A.x_lm358.vb  -4.435E-09
    X_U6A.x_lm358.vc   1.321E-11
    X_U6A.x_lm358.ve   2.069E-11
    X_U6A.x_lm358.vlim   7.844E-04
    X_U6A.x_lm358.vlp  -3.922E-11
    X_U6A.x_lm358.vln  -4.079E-11

    TOTAL POWER DISSIPATION   3.31E+00  WATTS


**** 05/22/23 16:17:11 **** PSpice 22.1.0 (9 December 2022) *** ID# 0 ********

 ** Profile: "SCHEMATIC1-tranzi"  [ C:\Miruna\PROIECT_ORCAD\Proiect-PSpiceFiles\SCHEMATIC1\tranzi.sim ] 


 ****     INITIAL TRANSIENT SOLUTION       TEMPERATURE =   27.000 DEG C

 ****     CURRENT STEP                     PARAM R =   34.3000E+03


******************************************************************************



 NODE   VOLTAGE     NODE   VOLTAGE     NODE   VOLTAGE     NODE   VOLTAGE


(  OUT)   16.2350  (  VCC)   17.0000  ( -VCC)  -17.0000  ( REF1)    2.2932      

( REF2)   10.2070  (N00075)     .6232 (N00177)    2.3940 (N00390)    2.3931     

(N00477)    1.5323 (N00618)    1.5316 (N00681)     .1759 (N00786)   11.7760     

(N01788)     .9684 (N01792)     .0508 (N02007)    1.9584 (N02701)    2.2941     

(N03121)   10.2100 (N12559)    4.0000 (X_U4A.x_lm358.6)   -1.4890               

(X_U4A.x_lm358.7)   18.2650           (X_U4A.x_lm358.8)   18.2650               

(X_U4A.x_lm358.9)    0.0000           (X_U4A.x_lm358.a)   16.9590               

(X_U4A.x_lm358.b)    -.0406           (X_U4B.x_lm358.6)-22.24E-06               

(X_U4B.x_lm358.7)     .1378           (X_U4B.x_lm358.8)     .1378               

(X_U4B.x_lm358.9)    0.0000           (X_U4B.x_lm358.a) 763.4E-06               

(X_U4B.x_lm358.b)  -16.9990           (X_U5A.x_lm358.6)-463.4E-06               

(X_U5A.x_lm358.7)    2.4361           (X_U5A.x_lm358.8)    2.4361               

(X_U5A.x_lm358.9)    0.0000           (X_U5A.x_lm358.a)   16.9990               

(X_U5A.x_lm358.b)-862.4E-06           (X_U5B.x_lm358.6)    -.0019               

(X_U5B.x_lm358.7)   10.1280           (X_U5B.x_lm358.8)   10.1280               

(X_U5B.x_lm358.9)    0.0000           (X_U5B.x_lm358.a)     .0016               

(X_U5B.x_lm358.b)  -16.9980           (X_U6A.x_lm358.6)-443.2E-06               

(X_U6A.x_lm358.7)    2.3313           (X_U6A.x_lm358.8)    2.3313               

(X_U6A.x_lm358.9)    0.0000           (X_U6A.x_lm358.a)   16.9990               

(X_U6A.x_lm358.b)-763.2E-06           (X_U4A.x_lm358.10)     .8153              

(X_U4A.x_lm358.11)  -16.9210          (X_U4A.x_lm358.12)  -17.0000              

(X_U4A.x_lm358.13)     .7876          (X_U4A.x_lm358.14)     .8153              

(X_U4A.x_lm358.53)   15.5000          (X_U4A.x_lm358.54)  -16.1780              

(X_U4A.x_lm358.90)   40.6130          (X_U4A.x_lm358.91)   40.0000              

(X_U4A.x_lm358.92)  -40.0000          (X_U4A.x_lm358.99)    0.0000              

(X_U4B.x_lm358.10)    2.1393          (X_U4B.x_lm358.11)  -16.9600              

(X_U4B.x_lm358.12)  -16.9610          (X_U4B.x_lm358.13)    2.1254              

(X_U4B.x_lm358.14)    2.1256          (X_U4B.x_lm358.53)   15.5000              

(X_U4B.x_lm358.54)  -16.1780          (X_U4B.x_lm358.90)    -.7617              

(X_U4B.x_lm358.91)   40.0000          (X_U4B.x_lm358.92)  -40.0000              

(X_U4B.x_lm358.99)    0.0000          (X_U5A.x_lm358.10)    3.0007              

(X_U5A.x_lm358.11)  -16.9600          (X_U5A.x_lm358.12)  -16.9610              

(X_U5A.x_lm358.13)    2.9869          (X_U5A.x_lm358.14)    2.9872              

(X_U5A.x_lm358.53)   15.5000          (X_U5A.x_lm358.54)  -16.1780              

(X_U5A.x_lm358.90)     .8607          (X_U5A.x_lm358.91)   40.0000              

(X_U5A.x_lm358.92)  -40.0000          (X_U5A.x_lm358.99)    0.0000              

(X_U5B.x_lm358.10)   10.8140          (X_U5B.x_lm358.11)  -16.9610              

(X_U5B.x_lm358.12)  -16.9640          (X_U5B.x_lm358.13)   10.8000              

(X_U5B.x_lm358.14)   10.8010          (X_U5B.x_lm358.53)   15.5000              

(X_U5B.x_lm358.54)  -16.1780          (X_U5B.x_lm358.90)   -1.5699              

(X_U5B.x_lm358.91)   40.0000          (X_U5B.x_lm358.92)  -40.0000              

(X_U5B.x_lm358.99)    0.0000          (X_U6A.x_lm358.10)    2.9009              

(X_U6A.x_lm358.11)  -16.9600          (X_U6A.x_lm358.12)  -16.9610              

(X_U6A.x_lm358.13)    2.8870          (X_U6A.x_lm358.14)    2.8873              

(X_U6A.x_lm358.53)   15.5000          (X_U6A.x_lm358.54)  -16.1780              

(X_U6A.x_lm358.90)     .7615          (X_U6A.x_lm358.91)   40.0000              

(X_U6A.x_lm358.92)  -40.0000          (X_U6A.x_lm358.99)    0.0000          




    VOLTAGE SOURCE CURRENTS
    NAME         CURRENT

    V_V1        -1.216E-01
    V_V2         2.113E-02
    V_V3        -2.212E-01
    X_U4A.x_lm358.vb  -1.489E-05
    X_U4A.x_lm358.vc  -1.745E-03
    X_U4A.x_lm358.ve   3.463E-11
    X_U4A.x_lm358.vlim   4.061E-02
    X_U4A.x_lm358.vlp   1.567E-05
    X_U4A.x_lm358.vln  -8.062E-11
    X_U4B.x_lm358.vb  -2.224E-10
    X_U4B.x_lm358.vc   1.532E-11
    X_U4B.x_lm358.ve   1.857E-11
    X_U4B.x_lm358.vlim  -7.617E-04
    X_U4B.x_lm358.vlp  -4.076E-11
    X_U4B.x_lm358.vln  -3.924E-11
    X_U5A.x_lm358.vb  -4.634E-09
    X_U5A.x_lm358.vc   1.311E-11
    X_U5A.x_lm358.ve   2.079E-11
    X_U5A.x_lm358.vlim   8.607E-04
    X_U5A.x_lm358.vlp  -3.914E-11
    X_U5A.x_lm358.vln  -4.087E-11
    X_U5B.x_lm358.vb  -1.901E-08
    X_U5B.x_lm358.vc   5.294E-12
    X_U5B.x_lm358.ve   2.860E-11
    X_U5B.x_lm358.vlim  -1.570E-03
    X_U5B.x_lm358.vlp  -4.157E-11
    X_U5B.x_lm358.vln  -3.843E-11
    X_U6A.x_lm358.vb  -4.432E-09
    X_U6A.x_lm358.vc   1.321E-11
    X_U6A.x_lm358.ve   2.069E-11
    X_U6A.x_lm358.vlim   7.615E-04
    X_U6A.x_lm358.vlp  -3.924E-11
    X_U6A.x_lm358.vln  -4.077E-11

    TOTAL POWER DISSIPATION   3.31E+00  WATTS


**** 05/22/23 16:17:11 **** PSpice 22.1.0 (9 December 2022) *** ID# 0 ********

 ** Profile: "SCHEMATIC1-tranzi"  [ C:\Miruna\PROIECT_ORCAD\Proiect-PSpiceFiles\SCHEMATIC1\tranzi.sim ] 


 ****     INITIAL TRANSIENT SOLUTION       TEMPERATURE =   27.000 DEG C

 ****     CURRENT STEP                     PARAM R =   34.2000E+03


******************************************************************************



 NODE   VOLTAGE     NODE   VOLTAGE     NODE   VOLTAGE     NODE   VOLTAGE


(  OUT)   16.2350  (  VCC)   17.0000  ( -VCC)  -17.0000  ( REF1)    2.2932      

( REF2)   10.2070  (N00075)     .6232 (N00177)    2.4298 (N00390)    2.4288     

(N00477)    1.5551 (N00618)    1.5544 (N00681)     .2394 (N00786)   11.7760     

(N01788)     .9684 (N01792)     .0508 (N02007)    1.9584 (N02701)    2.2941     

(N03121)   10.2100 (N12559)    4.0000 (X_U4A.x_lm358.6)   -1.4882               

(X_U4A.x_lm358.7)   18.2650           (X_U4A.x_lm358.8)   18.2650               

(X_U4A.x_lm358.9)    0.0000           (X_U4A.x_lm358.a)   16.9590               

(X_U4A.x_lm358.b)    -.0406           (X_U4B.x_lm358.6)-34.55E-06               

(X_U4B.x_lm358.7)     .2025           (X_U4B.x_lm358.8)     .2025               

(X_U4B.x_lm358.9)    0.0000           (X_U4B.x_lm358.a) 740.6E-06               

(X_U4B.x_lm358.b)  -16.9990           (X_U5A.x_lm358.6)-470.3E-06               

(X_U5A.x_lm358.7)    2.4724           (X_U5A.x_lm358.8)    2.4724               

(X_U5A.x_lm358.9)    0.0000           (X_U5A.x_lm358.a)   16.9990               

(X_U5A.x_lm358.b)-875.3E-06           (X_U5B.x_lm358.6)    -.0019               

(X_U5B.x_lm358.7)   10.1280           (X_U5B.x_lm358.8)   10.1280               

(X_U5B.x_lm358.9)    0.0000           (X_U5B.x_lm358.a)     .0016               

(X_U5B.x_lm358.b)  -16.9980           (X_U6A.x_lm358.6)-442.8E-06               

(X_U6A.x_lm358.7)    2.3301           (X_U6A.x_lm358.8)    2.3301               

(X_U6A.x_lm358.9)    0.0000           (X_U6A.x_lm358.a)   16.9990               

(X_U6A.x_lm358.b)-740.4E-06           (X_U4A.x_lm358.10)     .8788              

(X_U4A.x_lm358.11)  -16.9210          (X_U4A.x_lm358.12)  -17.0000              

(X_U4A.x_lm358.13)     .8511          (X_U4A.x_lm358.14)     .8788              

(X_U4A.x_lm358.53)   15.5000          (X_U4A.x_lm358.54)  -16.1780              

(X_U4A.x_lm358.90)   40.6130          (X_U4A.x_lm358.91)   40.0000              

(X_U4A.x_lm358.92)  -40.0000          (X_U4A.x_lm358.99)    0.0000              

(X_U4B.x_lm358.10)    2.1622          (X_U4B.x_lm358.11)  -16.9600              

(X_U4B.x_lm358.12)  -16.9610          (X_U4B.x_lm358.13)    2.1483              

(X_U4B.x_lm358.14)    2.1485          (X_U4B.x_lm358.53)   15.5000              

(X_U4B.x_lm358.54)  -16.1780          (X_U4B.x_lm358.90)    -.7389              

(X_U4B.x_lm358.91)   40.0000          (X_U4B.x_lm358.92)  -40.0000              

(X_U4B.x_lm358.99)    0.0000          (X_U5A.x_lm358.10)    3.0364              

(X_U5A.x_lm358.11)  -16.9600          (X_U5A.x_lm358.12)  -16.9610              

(X_U5A.x_lm358.13)    3.0226          (X_U5A.x_lm358.14)    3.0229              

(X_U5A.x_lm358.53)   15.5000          (X_U5A.x_lm358.54)  -16.1780              

(X_U5A.x_lm358.90)     .8736          (X_U5A.x_lm358.91)   40.0000              

(X_U5A.x_lm358.92)  -40.0000          (X_U5A.x_lm358.99)    0.0000              

(X_U5B.x_lm358.10)   10.8140          (X_U5B.x_lm358.11)  -16.9610              

(X_U5B.x_lm358.12)  -16.9640          (X_U5B.x_lm358.13)   10.8000              

(X_U5B.x_lm358.14)   10.8010          (X_U5B.x_lm358.53)   15.5000              

(X_U5B.x_lm358.54)  -16.1780          (X_U5B.x_lm358.90)   -1.5699              

(X_U5B.x_lm358.91)   40.0000          (X_U5B.x_lm358.92)  -40.0000              

(X_U5B.x_lm358.99)    0.0000          (X_U6A.x_lm358.10)    2.9009              

(X_U6A.x_lm358.11)  -16.9600          (X_U6A.x_lm358.12)  -16.9610              

(X_U6A.x_lm358.13)    2.8870          (X_U6A.x_lm358.14)    2.8873              

(X_U6A.x_lm358.53)   15.5000          (X_U6A.x_lm358.54)  -16.1780              

(X_U6A.x_lm358.90)     .7387          (X_U6A.x_lm358.91)   40.0000              

(X_U6A.x_lm358.92)  -40.0000          (X_U6A.x_lm358.99)    0.0000          




    VOLTAGE SOURCE CURRENTS
    NAME         CURRENT

    V_V1        -1.216E-01
    V_V2         2.111E-02
    V_V3        -2.212E-01
    X_U4A.x_lm358.vb  -1.488E-05
    X_U4A.x_lm358.vc  -1.745E-03
    X_U4A.x_lm358.ve   3.463E-11
    X_U4A.x_lm358.vlim   4.061E-02
    X_U4A.x_lm358.vlp   1.566E-05
    X_U4A.x_lm358.vln  -8.062E-11
    X_U4B.x_lm358.vb  -3.455E-10
    X_U4B.x_lm358.vc   1.526E-11
    X_U4B.x_lm358.ve   1.863E-11
    X_U4B.x_lm358.vlim  -7.389E-04
    X_U4B.x_lm358.vlp  -4.074E-11
    X_U4B.x_lm358.vln  -3.927E-11
    X_U5A.x_lm358.vb  -4.703E-09
    X_U5A.x_lm358.vc   1.307E-11
    X_U5A.x_lm358.ve   2.082E-11
    X_U5A.x_lm358.vlim   8.736E-04
    X_U5A.x_lm358.vlp  -3.913E-11
    X_U5A.x_lm358.vln  -4.088E-11
    X_U5B.x_lm358.vb  -1.901E-08
    X_U5B.x_lm358.vc   5.294E-12
    X_U5B.x_lm358.ve   2.860E-11
    X_U5B.x_lm358.vlim  -1.570E-03
    X_U5B.x_lm358.vlp  -4.157E-11
    X_U5B.x_lm358.vln  -3.843E-11
    X_U6A.x_lm358.vb  -4.428E-09
    X_U6A.x_lm358.vc   1.321E-11
    X_U6A.x_lm358.ve   2.069E-11
    X_U6A.x_lm358.vlim   7.387E-04
    X_U6A.x_lm358.vlp  -3.926E-11
    X_U6A.x_lm358.vln  -4.074E-11

    TOTAL POWER DISSIPATION   3.31E+00  WATTS


**** 05/22/23 16:17:11 **** PSpice 22.1.0 (9 December 2022) *** ID# 0 ********

 ** Profile: "SCHEMATIC1-tranzi"  [ C:\Miruna\PROIECT_ORCAD\Proiect-PSpiceFiles\SCHEMATIC1\tranzi.sim ] 


 ****     INITIAL TRANSIENT SOLUTION       TEMPERATURE =   27.000 DEG C

 ****     CURRENT STEP                     PARAM R =   34.1000E+03


******************************************************************************



 NODE   VOLTAGE     NODE   VOLTAGE     NODE   VOLTAGE     NODE   VOLTAGE


(  OUT)   16.2350  (  VCC)   17.0000  ( -VCC)  -17.0000  ( REF1)    2.2932      

( REF2)   10.2070  (N00075)     .6232 (N00177)    2.4655 (N00390)    2.4645     

(N00477)    1.5780 (N00618)    1.5773 (N00681)     .3030 (N00786)   11.7760     

(N01788)     .9684 (N01792)     .0508 (N02007)    1.9584 (N02701)    2.2941     

(N03121)   10.2100 (N12559)    4.0000 (X_U4A.x_lm358.6)   -1.4873               

(X_U4A.x_lm358.7)   18.2650           (X_U4A.x_lm358.8)   18.2650               

(X_U4A.x_lm358.9)    0.0000           (X_U4A.x_lm358.a)   16.9590               

(X_U4A.x_lm358.b)    -.0406           (X_U4B.x_lm358.6)-46.86E-06               

(X_U4B.x_lm358.7)     .2672           (X_U4B.x_lm358.8)     .2672               

(X_U4B.x_lm358.9)    0.0000           (X_U4B.x_lm358.a) 717.7E-06               

(X_U4B.x_lm358.b)  -16.9990           (X_U5A.x_lm358.6)-477.3E-06               

(X_U5A.x_lm358.7)    2.5088           (X_U5A.x_lm358.8)    2.5088               

(X_U5A.x_lm358.9)    0.0000           (X_U5A.x_lm358.a)   16.9990               

(X_U5A.x_lm358.b)-888.1E-06           (X_U5B.x_lm358.6)    -.0019               

(X_U5B.x_lm358.7)   10.1280           (X_U5B.x_lm358.8)   10.1280               

(X_U5B.x_lm358.9)    0.0000           (X_U5B.x_lm358.a)     .0016               

(X_U5B.x_lm358.b)  -16.9980           (X_U6A.x_lm358.6)-442.5E-06               

(X_U6A.x_lm358.7)    2.3290           (X_U6A.x_lm358.8)    2.3290               

(X_U6A.x_lm358.9)    0.0000           (X_U6A.x_lm358.a)   16.9990               

(X_U6A.x_lm358.b)-717.5E-06           (X_U4A.x_lm358.10)     .9424              

(X_U4A.x_lm358.11)  -16.9210          (X_U4A.x_lm358.12)  -17.0000              

(X_U4A.x_lm358.13)     .9147          (X_U4A.x_lm358.14)     .9424              

(X_U4A.x_lm358.53)   15.5000          (X_U4A.x_lm358.54)  -16.1780              

(X_U4A.x_lm358.90)   40.6130          (X_U4A.x_lm358.91)   40.0000              

(X_U4A.x_lm358.92)  -40.0000          (X_U4A.x_lm358.99)    0.0000              

(X_U4B.x_lm358.10)    2.1850          (X_U4B.x_lm358.11)  -16.9600              

(X_U4B.x_lm358.12)  -16.9610          (X_U4B.x_lm358.13)    2.1711              

(X_U4B.x_lm358.14)    2.1714          (X_U4B.x_lm358.53)   15.5000              

(X_U4B.x_lm358.54)  -16.1780          (X_U4B.x_lm358.90)    -.7160              

(X_U4B.x_lm358.91)   40.0000          (X_U4B.x_lm358.92)  -40.0000              

(X_U4B.x_lm358.99)    0.0000          (X_U5A.x_lm358.10)    3.0722              

(X_U5A.x_lm358.11)  -16.9600          (X_U5A.x_lm358.12)  -16.9610              

(X_U5A.x_lm358.13)    3.0583          (X_U5A.x_lm358.14)    3.0587              

(X_U5A.x_lm358.53)   15.5000          (X_U5A.x_lm358.54)  -16.1780              

(X_U5A.x_lm358.90)     .8864          (X_U5A.x_lm358.91)   40.0000              

(X_U5A.x_lm358.92)  -40.0000          (X_U5A.x_lm358.99)    0.0000              

(X_U5B.x_lm358.10)   10.8140          (X_U5B.x_lm358.11)  -16.9610              

(X_U5B.x_lm358.12)  -16.9640          (X_U5B.x_lm358.13)   10.8000              

(X_U5B.x_lm358.14)   10.8010          (X_U5B.x_lm358.53)   15.5000              

(X_U5B.x_lm358.54)  -16.1780          (X_U5B.x_lm358.90)   -1.5699              

(X_U5B.x_lm358.91)   40.0000          (X_U5B.x_lm358.92)  -40.0000              

(X_U5B.x_lm358.99)    0.0000          (X_U6A.x_lm358.10)    2.9009              

(X_U6A.x_lm358.11)  -16.9600          (X_U6A.x_lm358.12)  -16.9610              

(X_U6A.x_lm358.13)    2.8870          (X_U6A.x_lm358.14)    2.8873              

(X_U6A.x_lm358.53)   15.5000          (X_U6A.x_lm358.54)  -16.1780              

(X_U6A.x_lm358.90)     .7158          (X_U6A.x_lm358.91)   40.0000              

(X_U6A.x_lm358.92)  -40.0000          (X_U6A.x_lm358.99)    0.0000          




    VOLTAGE SOURCE CURRENTS
    NAME         CURRENT

    V_V1        -1.216E-01
    V_V2         2.109E-02
    V_V3        -2.212E-01
    X_U4A.x_lm358.vb  -1.487E-05
    X_U4A.x_lm358.vc  -1.745E-03
    X_U4A.x_lm358.ve   3.463E-11
    X_U4A.x_lm358.vlim   4.061E-02
    X_U4A.x_lm358.vlp   1.565E-05
    X_U4A.x_lm358.vln  -8.062E-11
    X_U4B.x_lm358.vb  -4.686E-10
    X_U4B.x_lm358.vc   1.520E-11
    X_U4B.x_lm358.ve   1.870E-11
    X_U4B.x_lm358.vlim  -7.160E-04
    X_U4B.x_lm358.vlp  -4.072E-11
    X_U4B.x_lm358.vln  -3.929E-11
    X_U5A.x_lm358.vb  -4.773E-09
    X_U5A.x_lm358.vc   1.304E-11
    X_U5A.x_lm358.ve   2.086E-11
    X_U5A.x_lm358.vlim   8.864E-04
    X_U5A.x_lm358.vlp  -3.911E-11
    X_U5A.x_lm358.vln  -4.089E-11
    X_U5B.x_lm358.vb  -1.901E-08
    X_U5B.x_lm358.vc   5.294E-12
    X_U5B.x_lm358.ve   2.860E-11
    X_U5B.x_lm358.vlim  -1.570E-03
    X_U5B.x_lm358.vlp  -4.157E-11
    X_U5B.x_lm358.vln  -3.843E-11
    X_U6A.x_lm358.vb  -4.425E-09
    X_U6A.x_lm358.vc   1.321E-11
    X_U6A.x_lm358.ve   2.069E-11
    X_U6A.x_lm358.vlim   7.158E-04
    X_U6A.x_lm358.vlp  -3.929E-11
    X_U6A.x_lm358.vln  -4.072E-11

    TOTAL POWER DISSIPATION   3.31E+00  WATTS


**** 05/22/23 16:17:11 **** PSpice 22.1.0 (9 December 2022) *** ID# 0 ********

 ** Profile: "SCHEMATIC1-tranzi"  [ C:\Miruna\PROIECT_ORCAD\Proiect-PSpiceFiles\SCHEMATIC1\tranzi.sim ] 


 ****     INITIAL TRANSIENT SOLUTION       TEMPERATURE =   27.000 DEG C

 ****     CURRENT STEP                     PARAM R =   34.0000E+03


******************************************************************************



 NODE   VOLTAGE     NODE   VOLTAGE     NODE   VOLTAGE     NODE   VOLTAGE


(  OUT)   16.2350  (  VCC)   17.0000  ( -VCC)  -17.0000  ( REF1)    2.2932      

( REF2)   10.2070  (N00075)     .6232 (N00177)    2.5013 (N00390)    2.5003     

(N00477)    1.6009 (N00618)    1.6002 (N00681)     .3667 (N00786)   11.7760     

(N01788)     .9684 (N01792)     .0508 (N02007)    1.9584 (N02701)    2.2941     

(N03121)   10.2100 (N12559)    4.0000 (X_U4A.x_lm358.6)   -1.4864               

(X_U4A.x_lm358.7)   18.2650           (X_U4A.x_lm358.8)   18.2650               

(X_U4A.x_lm358.9)    0.0000           (X_U4A.x_lm358.a)   16.9590               

(X_U4A.x_lm358.b)    -.0406           (X_U4B.x_lm358.6)-59.19E-06               

(X_U4B.x_lm358.7)     .3320           (X_U4B.x_lm358.8)     .3320               

(X_U4B.x_lm358.9)    0.0000           (X_U4B.x_lm358.a) 694.8E-06               

(X_U4B.x_lm358.b)  -16.9990           (X_U5A.x_lm358.6)-484.2E-06               

(X_U5A.x_lm358.7)    2.5452           (X_U5A.x_lm358.8)    2.5452               

(X_U5A.x_lm358.9)    0.0000           (X_U5A.x_lm358.a)   16.9990               

(X_U5A.x_lm358.b)-901.0E-06           (X_U5B.x_lm358.6)    -.0019               

(X_U5B.x_lm358.7)   10.1280           (X_U5B.x_lm358.8)   10.1280               

(X_U5B.x_lm358.9)    0.0000           (X_U5B.x_lm358.a)     .0016               

(X_U5B.x_lm358.b)  -16.9980           (X_U6A.x_lm358.6)-442.2E-06               

(X_U6A.x_lm358.7)    2.3278           (X_U6A.x_lm358.8)    2.3278               

(X_U6A.x_lm358.9)    0.0000           (X_U6A.x_lm358.a)   16.9990               

(X_U6A.x_lm358.b)-694.6E-06           (X_U4A.x_lm358.10)    1.0061              

(X_U4A.x_lm358.11)  -16.9210          (X_U4A.x_lm358.12)  -17.0000              

(X_U4A.x_lm358.13)     .9784          (X_U4A.x_lm358.14)    1.0061              

(X_U4A.x_lm358.53)   15.5000          (X_U4A.x_lm358.54)  -16.1780              

(X_U4A.x_lm358.90)   40.6130          (X_U4A.x_lm358.91)   40.0000              

(X_U4A.x_lm358.92)  -40.0000          (X_U4A.x_lm358.99)    0.0000              

(X_U4B.x_lm358.10)    2.2079          (X_U4B.x_lm358.11)  -16.9600              

(X_U4B.x_lm358.12)  -16.9610          (X_U4B.x_lm358.13)    2.1940              

(X_U4B.x_lm358.14)    2.1943          (X_U4B.x_lm358.53)   15.5000              

(X_U4B.x_lm358.54)  -16.1780          (X_U4B.x_lm358.90)    -.6931              

(X_U4B.x_lm358.91)   40.0000          (X_U4B.x_lm358.92)  -40.0000              

(X_U4B.x_lm358.99)    0.0000          (X_U5A.x_lm358.10)    3.1080              

(X_U5A.x_lm358.11)  -16.9600          (X_U5A.x_lm358.12)  -16.9610              

(X_U5A.x_lm358.13)    3.0941          (X_U5A.x_lm358.14)    3.0944              

(X_U5A.x_lm358.53)   15.5000          (X_U5A.x_lm358.54)  -16.1780              

(X_U5A.x_lm358.90)     .8993          (X_U5A.x_lm358.91)   40.0000              

(X_U5A.x_lm358.92)  -40.0000          (X_U5A.x_lm358.99)    0.0000              

(X_U5B.x_lm358.10)   10.8140          (X_U5B.x_lm358.11)  -16.9610              

(X_U5B.x_lm358.12)  -16.9640          (X_U5B.x_lm358.13)   10.8000              

(X_U5B.x_lm358.14)   10.8010          (X_U5B.x_lm358.53)   15.5000              

(X_U5B.x_lm358.54)  -16.1780          (X_U5B.x_lm358.90)   -1.5699              

(X_U5B.x_lm358.91)   40.0000          (X_U5B.x_lm358.92)  -40.0000              

(X_U5B.x_lm358.99)    0.0000          (X_U6A.x_lm358.10)    2.9009              

(X_U6A.x_lm358.11)  -16.9600          (X_U6A.x_lm358.12)  -16.9610              

(X_U6A.x_lm358.13)    2.8870          (X_U6A.x_lm358.14)    2.8873              

(X_U6A.x_lm358.53)   15.5000          (X_U6A.x_lm358.54)  -16.1780              

(X_U6A.x_lm358.90)     .6929          (X_U6A.x_lm358.91)   40.0000              

(X_U6A.x_lm358.92)  -40.0000          (X_U6A.x_lm358.99)    0.0000          




    VOLTAGE SOURCE CURRENTS
    NAME         CURRENT

    V_V1        -1.216E-01
    V_V2         2.106E-02
    V_V3        -2.212E-01
    X_U4A.x_lm358.vb  -1.486E-05
    X_U4A.x_lm358.vc  -1.745E-03
    X_U4A.x_lm358.ve   3.463E-11
    X_U4A.x_lm358.vlim   4.061E-02
    X_U4A.x_lm358.vlp   1.565E-05
    X_U4A.x_lm358.vln  -8.062E-11
    X_U4B.x_lm358.vb  -5.919E-10
    X_U4B.x_lm358.vc   1.513E-11
    X_U4B.x_lm358.ve   1.876E-11
    X_U4B.x_lm358.vlim  -6.931E-04
    X_U4B.x_lm358.vlp  -4.069E-11
    X_U4B.x_lm358.vln  -3.931E-11
    X_U5A.x_lm358.vb  -4.842E-09
    X_U5A.x_lm358.vc   1.300E-11
    X_U5A.x_lm358.ve   2.089E-11
    X_U5A.x_lm358.vlim   8.993E-04
    X_U5A.x_lm358.vlp  -3.910E-11
    X_U5A.x_lm358.vln  -4.090E-11
    X_U5B.x_lm358.vb  -1.901E-08
    X_U5B.x_lm358.vc   5.294E-12
    X_U5B.x_lm358.ve   2.860E-11
    X_U5B.x_lm358.vlim  -1.570E-03
    X_U5B.x_lm358.vlp  -4.157E-11
    X_U5B.x_lm358.vln  -3.843E-11
    X_U6A.x_lm358.vb  -4.422E-09
    X_U6A.x_lm358.vc   1.321E-11
    X_U6A.x_lm358.ve   2.069E-11
    X_U6A.x_lm358.vlim   6.929E-04
    X_U6A.x_lm358.vlp  -3.931E-11
    X_U6A.x_lm358.vln  -4.070E-11

    TOTAL POWER DISSIPATION   3.31E+00  WATTS


**** 05/22/23 16:17:11 **** PSpice 22.1.0 (9 December 2022) *** ID# 0 ********

 ** Profile: "SCHEMATIC1-tranzi"  [ C:\Miruna\PROIECT_ORCAD\Proiect-PSpiceFiles\SCHEMATIC1\tranzi.sim ] 


 ****     INITIAL TRANSIENT SOLUTION       TEMPERATURE =   27.000 DEG C

 ****     CURRENT STEP                     PARAM R =   33.9000E+03


******************************************************************************



 NODE   VOLTAGE     NODE   VOLTAGE     NODE   VOLTAGE     NODE   VOLTAGE


(  OUT)   16.2350  (  VCC)   17.0000  ( -VCC)  -17.0000  ( REF1)    2.2932      

( REF2)   10.2070  (N00075)     .6232 (N00177)    2.5371 (N00390)    2.5361     

(N00477)    1.6239 (N00618)    1.6231 (N00681)     .4304 (N00786)   11.7760     

(N01788)     .9684 (N01792)     .0508 (N02007)    1.9584 (N02701)    2.2941     

(N03121)   10.2100 (N12559)    4.0000 (X_U4A.x_lm358.6)   -1.4856               

(X_U4A.x_lm358.7)   18.2650           (X_U4A.x_lm358.8)   18.2650               

(X_U4A.x_lm358.9)    0.0000           (X_U4A.x_lm358.a)   16.9590               

(X_U4A.x_lm358.b)    -.0406           (X_U4B.x_lm358.6)-71.53E-06               

(X_U4B.x_lm358.7)     .3969           (X_U4B.x_lm358.8)     .3969               

(X_U4B.x_lm358.9)    0.0000           (X_U4B.x_lm358.a) 671.9E-06               

(X_U4B.x_lm358.b)  -16.9990           (X_U5A.x_lm358.6)-491.1E-06               

(X_U5A.x_lm358.7)    2.5817           (X_U5A.x_lm358.8)    2.5817               

(X_U5A.x_lm358.9)    0.0000           (X_U5A.x_lm358.a)   16.9990               

(X_U5A.x_lm358.b)-913.9E-06           (X_U5B.x_lm358.6)    -.0019               

(X_U5B.x_lm358.7)   10.1280           (X_U5B.x_lm358.8)   10.1280               

(X_U5B.x_lm358.9)    0.0000           (X_U5B.x_lm358.a)     .0016               

(X_U5B.x_lm358.b)  -16.9980           (X_U6A.x_lm358.6)-441.9E-06               

(X_U6A.x_lm358.7)    2.3267           (X_U6A.x_lm358.8)    2.3267               

(X_U6A.x_lm358.9)    0.0000           (X_U6A.x_lm358.a)   16.9990               

(X_U6A.x_lm358.b)-671.7E-06           (X_U4A.x_lm358.10)    1.0698              

(X_U4A.x_lm358.11)  -16.9210          (X_U4A.x_lm358.12)  -17.0000              

(X_U4A.x_lm358.13)    1.0421          (X_U4A.x_lm358.14)    1.0698              

(X_U4A.x_lm358.53)   15.5000          (X_U4A.x_lm358.54)  -16.1780              

(X_U4A.x_lm358.90)   40.6130          (X_U4A.x_lm358.91)   40.0000              

(X_U4A.x_lm358.92)  -40.0000          (X_U4A.x_lm358.99)    0.0000              

(X_U4B.x_lm358.10)    2.2308          (X_U4B.x_lm358.11)  -16.9600              

(X_U4B.x_lm358.12)  -16.9610          (X_U4B.x_lm358.13)    2.2170              

(X_U4B.x_lm358.14)    2.2172          (X_U4B.x_lm358.53)   15.5000              

(X_U4B.x_lm358.54)  -16.1780          (X_U4B.x_lm358.90)    -.6702              

(X_U4B.x_lm358.91)   40.0000          (X_U4B.x_lm358.92)  -40.0000              

(X_U4B.x_lm358.99)    0.0000          (X_U5A.x_lm358.10)    3.1438              

(X_U5A.x_lm358.11)  -16.9600          (X_U5A.x_lm358.12)  -16.9610              

(X_U5A.x_lm358.13)    3.1299          (X_U5A.x_lm358.14)    3.1302              

(X_U5A.x_lm358.53)   15.5000          (X_U5A.x_lm358.54)  -16.1780              

(X_U5A.x_lm358.90)     .9122          (X_U5A.x_lm358.91)   40.0000              

(X_U5A.x_lm358.92)  -40.0000          (X_U5A.x_lm358.99)    0.0000              

(X_U5B.x_lm358.10)   10.8140          (X_U5B.x_lm358.11)  -16.9610              

[...]

(X_U5A.x_lm358.53)   15.5000          (X_U5A.x_lm358.54)  -16.1780              

(X_U5A.x_lm358.90)    3.5398          (X_U5A.x_lm358.91)   40.0000              

(X_U5A.x_lm358.92)  -40.0000          (X_U5A.x_lm358.99)    0.0000              

(X_U5B.x_lm358.10)   10.8140          (X_U5B.x_lm358.11)  -16.9610              

(X_U5B.x_lm358.12)  -16.9640          (X_U5B.x_lm358.13)   10.8000              

(X_U5B.x_lm358.14)   10.8010          (X_U5B.x_lm358.53)   15.5000              

(X_U5B.x_lm358.54)  -16.1780          (X_U5B.x_lm358.90)    7.0821              

(X_U5B.x_lm358.91)   40.0000          (X_U5B.x_lm358.92)  -40.0000              

(X_U5B.x_lm358.99)    0.0000          (X_U6A.x_lm358.10)    2.9009              

(X_U6A.x_lm358.11)  -16.9600          (X_U6A.x_lm358.12)  -16.9610              

(X_U6A.x_lm358.13)    2.8870          (X_U6A.x_lm358.14)    2.8873              

(X_U6A.x_lm358.53)   15.5000          (X_U6A.x_lm358.54)  -16.1780              

(X_U6A.x_lm358.90)   -4.0055          (X_U6A.x_lm358.91)   40.0000              

(X_U6A.x_lm358.92)  -40.0000          (X_U6A.x_lm358.99)    0.0000          




    VOLTAGE SOURCE CURRENTS
    NAME         CURRENT

    V_V1        -5.924E-02
    V_V2         2.989E-02
    V_V3        -2.212E-01
    X_U4A.x_lm358.vb   1.494E-05
    X_U4A.x_lm358.vc   3.249E-11
    X_U4A.x_lm358.ve  -3.353E-02
    X_U4A.x_lm358.vlim  -4.061E-02
    X_U4A.x_lm358.vlp  -8.061E-11
    X_U4A.x_lm358.vln   1.414E-05
    X_U4B.x_lm358.vb  -2.589E-08
    X_U4B.x_lm358.vc   2.073E-12
    X_U4B.x_lm358.ve   3.182E-11
    X_U4B.x_lm358.vlim   4.005E-03
    X_U4B.x_lm358.vlp  -3.600E-11
    X_U4B.x_lm358.vln  -4.401E-11
    X_U5A.x_lm358.vb  -1.906E-08
    X_U5A.x_lm358.vc   5.660E-12
    X_U5A.x_lm358.ve   2.823E-11
    X_U5A.x_lm358.vlim   3.540E-03
    X_U5A.x_lm358.vlp  -3.646E-11
    X_U5A.x_lm358.vln  -4.354E-11
    X_U5B.x_lm358.vb  -2.025E-08
    X_U5B.x_lm358.vc   5.294E-12
    X_U5B.x_lm358.ve   2.860E-11
    X_U5B.x_lm358.vlim   7.082E-03
    X_U5B.x_lm358.vlp  -3.292E-11
    X_U5B.x_lm358.vln  -4.709E-11
    X_U6A.x_lm358.vb  -3.749E-09
    X_U6A.x_lm358.vc   1.321E-11
    X_U6A.x_lm358.ve   2.069E-11
    X_U6A.x_lm358.vlim  -4.005E-03
    X_U6A.x_lm358.vlp  -4.401E-11
    X_U6A.x_lm358.vln  -3.600E-11

    TOTAL POWER DISSIPATION   2.43E+00  WATTS


**** 05/22/23 16:17:11 **** PSpice 22.1.0 (9 December 2022) *** ID# 0 ********

 ** Profile: "SCHEMATIC1-tranzi"  [ C:\Miruna\PROIECT_ORCAD\Proiect-PSpiceFiles\SCHEMATIC1\tranzi.sim ] 


 ****     INITIAL TRANSIENT SOLUTION       TEMPERATURE =   27.000 DEG C

 ****     CURRENT STEP                     PARAM R =   15.2000E+03


******************************************************************************



 NODE   VOLTAGE     NODE   VOLTAGE     NODE   VOLTAGE     NODE   VOLTAGE


(  OUT)  -16.9890  (  VCC)   17.0000  ( -VCC)  -17.0000  ( REF1)    2.2932      

( REF2)   10.2070  (N00075)     .6232 (N00177)    9.8874 (N00390)    9.8839     

(N00477)    6.3286 (N00618)    6.3262 (N00681)   13.5050 (N00786)    3.1244     

(N01788)  -16.9890 (N01792)   17.0000 (N02007)  -16.9890 (N02701)    2.2941     

(N03121)   10.2100 (N12559)    4.0000 (X_U4A.x_lm358.6)    1.4942               

(X_U4A.x_lm358.7)  -19.0200           (X_U4A.x_lm358.8)  -19.0200               

(X_U4A.x_lm358.9)    0.0000           (X_U4A.x_lm358.a)     .0406               

(X_U4A.x_lm358.b)  -16.9590           (X_U4B.x_lm358.6)    -.0026               

(X_U4B.x_lm358.7)   13.7060           (X_U4B.x_lm358.8)   13.7060               

(X_U4B.x_lm358.9)    0.0000           (X_U4B.x_lm358.a)   16.9960               

(X_U4B.x_lm358.b)    -.0040           (X_U5A.x_lm358.6)    -.0019               

(X_U5A.x_lm358.7)   10.0620           (X_U5A.x_lm358.8)   10.0620               

(X_U5A.x_lm358.9)    0.0000           (X_U5A.x_lm358.a)   16.9960               

(X_U5A.x_lm358.b)    -.0036           (X_U5B.x_lm358.6)    -.0020               

(X_U5B.x_lm358.7)   10.5610           (X_U5B.x_lm358.8)   10.5610               

(X_U5B.x_lm358.9)    0.0000           (X_U5B.x_lm358.a)   16.9930               

(X_U5B.x_lm358.b)    -.0071           (X_U6A.x_lm358.6)-374.5E-06               

(X_U6A.x_lm358.7)    2.0915           (X_U6A.x_lm358.8)    2.0915               

(X_U6A.x_lm358.9)    0.0000           (X_U6A.x_lm358.a)     .0040               

(X_U6A.x_lm358.b)  -16.9960           (X_U4A.x_lm358.10)    3.7630              

(X_U4A.x_lm358.11)  -17.0000          (X_U4A.x_lm358.12)  -16.9220              

(X_U4A.x_lm358.13)    3.7630          (X_U4A.x_lm358.14)    3.7357              

(X_U4A.x_lm358.53)   15.5000          (X_U4A.x_lm358.54)  -16.1780              

(X_U4A.x_lm358.90)  -40.6100          (X_U4A.x_lm358.91)   40.0000              

(X_U4A.x_lm358.92)  -40.0000          (X_U4A.x_lm358.99)    0.0000              

(X_U4B.x_lm358.10)    6.9337          (X_U4B.x_lm358.11)  -16.9600              

(X_U4B.x_lm358.12)  -16.9630          (X_U4B.x_lm358.13)    6.9199              

(X_U4B.x_lm358.14)    6.9207          (X_U4B.x_lm358.53)   15.5000              

(X_U4B.x_lm358.54)  -16.1780          (X_U4B.x_lm358.90)    4.0329              

(X_U4B.x_lm358.91)   40.0000          (X_U4B.x_lm358.92)  -40.0000              

(X_U4B.x_lm358.99)    0.0000          (X_U5A.x_lm358.10)   10.4910              

(X_U5A.x_lm358.11)  -16.9610          (X_U5A.x_lm358.12)  -16.9640              

(X_U5A.x_lm358.13)   10.4780          (X_U5A.x_lm358.14)   10.4790              

(X_U5A.x_lm358.53)   15.5000          (X_U5A.x_lm358.54)  -16.1780              

(X_U5A.x_lm358.90)    3.5553          (X_U5A.x_lm358.91)   40.0000              

(X_U5A.x_lm358.92)  -40.0000          (X_U5A.x_lm358.99)    0.0000              

(X_U5B.x_lm358.10)   10.8140          (X_U5B.x_lm358.11)  -16.9610              

(X_U5B.x_lm358.12)  -16.9640          (X_U5B.x_lm358.13)   10.8000              

(X_U5B.x_lm358.14)   10.8010          (X_U5B.x_lm358.53)   15.5000              

(X_U5B.x_lm358.54)  -16.1780          (X_U5B.x_lm358.90)    7.0821              

(X_U5B.x_lm358.91)   40.0000          (X_U5B.x_lm358.92)  -40.0000              

(X_U5B.x_lm358.99)    0.0000          (X_U6A.x_lm358.10)    2.9009              

(X_U6A.x_lm358.11)  -16.9600          (X_U6A.x_lm358.12)  -16.9610              

(X_U6A.x_lm358.13)    2.8870          (X_U6A.x_lm358.14)    2.8873              

(X_U6A.x_lm358.53)   15.5000          (X_U6A.x_lm358.54)  -16.1780              

(X_U6A.x_lm358.90)   -4.0330          (X_U6A.x_lm358.91)   40.0000              

(X_U6A.x_lm358.92)  -40.0000          (X_U6A.x_lm358.99)    0.0000          




    VOLTAGE SOURCE CURRENTS
    NAME         CURRENT

    V_V1        -5.928E-02
    V_V2         2.991E-02
    V_V3        -2.212E-01
    X_U4A.x_lm358.vb   1.494E-05
    X_U4A.x_lm358.vc   3.249E-11
    X_U4A.x_lm358.ve  -3.353E-02
    X_U4A.x_lm358.vlim  -4.061E-02
    X_U4A.x_lm358.vlp  -8.061E-11
    X_U4A.x_lm358.vln   1.414E-05
    X_U4B.x_lm358.vb  -2.603E-08
    X_U4B.x_lm358.vc   1.996E-12
    X_U4B.x_lm358.ve   3.190E-11
    X_U4B.x_lm358.vlim   4.033E-03
    X_U4B.x_lm358.vlp  -3.597E-11
    X_U4B.x_lm358.vln  -4.404E-11
    X_U5A.x_lm358.vb  -1.914E-08
    X_U5A.x_lm358.vc   5.617E-12
    X_U5A.x_lm358.ve   2.828E-11
    X_U5A.x_lm358.vlim   3.555E-03
    X_U5A.x_lm358.vlp  -3.645E-11
    X_U5A.x_lm358.vln  -4.356E-11
    X_U5B.x_lm358.vb  -2.025E-08
    X_U5B.x_lm358.vc   5.294E-12
    X_U5B.x_lm358.ve   2.860E-11
    X_U5B.x_lm358.vlim   7.082E-03
    X_U5B.x_lm358.vlp  -3.292E-11
    X_U5B.x_lm358.vln  -4.709E-11
    X_U6A.x_lm358.vb  -3.745E-09
    X_U6A.x_lm358.vc   1.321E-11
    X_U6A.x_lm358.ve   2.069E-11
    X_U6A.x_lm358.vlim  -4.033E-03
    X_U6A.x_lm358.vlp  -4.403E-11
    X_U6A.x_lm358.vln  -3.597E-11

    TOTAL POWER DISSIPATION   2.43E+00  WATTS


**** 05/22/23 16:17:11 **** PSpice 22.1.0 (9 December 2022) *** ID# 0 ********

 ** Profile: "SCHEMATIC1-tranzi"  [ C:\Miruna\PROIECT_ORCAD\Proiect-PSpiceFiles\SCHEMATIC1\tranzi.sim ] 


 ****     INITIAL TRANSIENT SOLUTION       TEMPERATURE =   27.000 DEG C

 ****     CURRENT STEP                     PARAM R =   15.1000E+03


******************************************************************************



 NODE   VOLTAGE     NODE   VOLTAGE     NODE   VOLTAGE     NODE   VOLTAGE


(  OUT)  -16.9890  (  VCC)   17.0000  ( -VCC)  -17.0000  ( REF1)    2.2932      

( REF2)   10.2070  (N00075)     .6232 (N00177)    9.9306 (N00390)    9.9270     

(N00477)    6.3562 (N00618)    6.3538 (N00681)   13.5820 (N00786)    3.1244     

(N01788)  -16.9890 (N01792)   17.0000 (N02007)  -16.9890 (N02701)    2.2941     

(N03121)   10.2100 (N12559)    4.0000 (X_U4A.x_lm358.6)    1.4942               

(X_U4A.x_lm358.7)  -19.0200           (X_U4A.x_lm358.8)  -19.0200               

(X_U4A.x_lm358.9)    0.0000           (X_U4A.x_lm358.a)     .0406               

(X_U4A.x_lm358.b)  -16.9590           (X_U4B.x_lm358.6)    -.0026               

(X_U4B.x_lm358.7)   13.7850           (X_U4B.x_lm358.8)   13.7850               

(X_U4B.x_lm358.9)    0.0000           (X_U4B.x_lm358.a)   16.9960               

(X_U4B.x_lm358.b)    -.0041           (X_U5A.x_lm358.6)    -.0019               

(X_U5A.x_lm358.7)   10.1060           (X_U5A.x_lm358.8)   10.1060               

(X_U5A.x_lm358.9)    0.0000           (X_U5A.x_lm358.a)   16.9960               

(X_U5A.x_lm358.b)    -.0036           (X_U5B.x_lm358.6)    -.0020               

(X_U5B.x_lm358.7)   10.5610           (X_U5B.x_lm358.8)   10.5610               

(X_U5B.x_lm358.9)    0.0000           (X_U5B.x_lm358.a)   16.9930               

(X_U5B.x_lm358.b)    -.0071           (X_U6A.x_lm358.6)-372.4E-06               

(X_U6A.x_lm358.7)    2.0901           (X_U6A.x_lm358.8)    2.0901               

(X_U6A.x_lm358.9)    0.0000           (X_U6A.x_lm358.a)     .0041               

(X_U6A.x_lm358.b)  -16.9960           (X_U4A.x_lm358.10)    3.7630              

(X_U4A.x_lm358.11)  -17.0000          (X_U4A.x_lm358.12)  -16.9220              

(X_U4A.x_lm358.13)    3.7630          (X_U4A.x_lm358.14)    3.7357              

(X_U4A.x_lm358.53)   15.5000          (X_U4A.x_lm358.54)  -16.1780              

(X_U4A.x_lm358.90)  -40.6100          (X_U4A.x_lm358.91)   40.0000              

(X_U4A.x_lm358.92)  -40.0000          (X_U4A.x_lm358.99)    0.0000              

(X_U4B.x_lm358.10)    6.9613          (X_U4B.x_lm358.11)  -16.9600              

(X_U4B.x_lm358.12)  -16.9630          (X_U4B.x_lm358.13)    6.9475              

(X_U4B.x_lm358.14)    6.9483          (X_U4B.x_lm358.53)   15.5000              

(X_U4B.x_lm358.54)  -16.1780          (X_U4B.x_lm358.90)    4.0605              

(X_U4B.x_lm358.91)   40.0000          (X_U4B.x_lm358.92)  -40.0000              

(X_U4B.x_lm358.99)    0.0000          (X_U5A.x_lm358.10)   10.5340              

(X_U5A.x_lm358.11)  -16.9610          (X_U5A.x_lm358.12)  -16.9640              

(X_U5A.x_lm358.13)   10.5210          (X_U5A.x_lm358.14)   10.5220              

(X_U5A.x_lm358.53)   15.5000          (X_U5A.x_lm358.54)  -16.1780              

(X_U5A.x_lm358.90)    3.5708          (X_U5A.x_lm358.91)   40.0000              

(X_U5A.x_lm358.92)  -40.0000          (X_U5A.x_lm358.99)    0.0000              

(X_U5B.x_lm358.10)   10.8140          (X_U5B.x_lm358.11)  -16.9610              

(X_U5B.x_lm358.12)  -16.9640          (X_U5B.x_lm358.13)   10.8000              

(X_U5B.x_lm358.14)   10.8010          (X_U5B.x_lm358.53)   15.5000              

(X_U5B.x_lm358.54)  -16.1780          (X_U5B.x_lm358.90)    7.0821              

(X_U5B.x_lm358.91)   40.0000          (X_U5B.x_lm358.92)  -40.0000              

(X_U5B.x_lm358.99)    0.0000          (X_U6A.x_lm358.10)    2.9009              

(X_U6A.x_lm358.11)  -16.9600          (X_U6A.x_lm358.12)  -16.9610              

(X_U6A.x_lm358.13)    2.8870          (X_U6A.x_lm358.14)    2.8873              

(X_U6A.x_lm358.53)   15.5000          (X_U6A.x_lm358.54)  -16.1780              

(X_U6A.x_lm358.90)   -4.0606          (X_U6A.x_lm358.91)   40.0000              

(X_U6A.x_lm358.92)  -40.0000          (X_U6A.x_lm358.99)    0.0000          




    VOLTAGE SOURCE CURRENTS
    NAME         CURRENT

    V_V1        -5.932E-02
    V_V2         2.994E-02
    V_V3        -2.212E-01
    X_U4A.x_lm358.vb   1.494E-05
    X_U4A.x_lm358.vc   1.027E-10
    X_U4A.x_lm358.ve  -3.353E-02
    X_U4A.x_lm358.vlim  -4.061E-02
    X_U4A.x_lm358.vlp  -2.549E-10
    X_U4A.x_lm358.vln   1.414E-05
    X_U4B.x_lm358.vb  -2.620E-08
    X_U4B.x_lm358.vc   6.068E-12
    X_U4B.x_lm358.ve   9.445E-11
    X_U4B.x_lm358.vlim   4.061E-03
    X_U4B.x_lm358.vlp  -1.137E-10
    X_U4B.x_lm358.vln  -1.393E-10
    X_U5A.x_lm358.vb  -1.924E-08
    X_U5A.x_lm358.vc   1.762E-11
    X_U5A.x_lm358.ve   8.289E-11
    X_U5A.x_lm358.vlim   3.571E-03
    X_U5A.x_lm358.vlp  -1.152E-10
    X_U5A.x_lm358.vln  -1.378E-10
    X_U5B.x_lm358.vb  -2.028E-08
    X_U5B.x_lm358.vc   1.674E-11
    X_U5B.x_lm358.ve   8.378E-11
    X_U5B.x_lm358.vlim   7.082E-03
    X_U5B.x_lm358.vlp  -1.041E-10
    X_U5B.x_lm358.vln  -1.489E-10
    X_U6A.x_lm358.vb  -3.724E-09
    X_U6A.x_lm358.vc   4.176E-11
    X_U6A.x_lm358.ve   5.875E-11
    X_U6A.x_lm358.vlim  -4.061E-03
    X_U6A.x_lm358.vlp  -1.393E-10
    X_U6A.x_lm358.vln  -1.137E-10

    TOTAL POWER DISSIPATION   2.43E+00  WATTS


**** 05/22/23 16:17:11 **** PSpice 22.1.0 (9 December 2022) *** ID# 0 ********

 ** Profile: "SCHEMATIC1-tranzi"  [ C:\Miruna\PROIECT_ORCAD\Proiect-PSpiceFiles\SCHEMATIC1\tranzi.sim ] 


 ****     INITIAL TRANSIENT SOLUTION       TEMPERATURE =   27.000 DEG C

 ****     CURRENT STEP                     PARAM R =   15.0000E+03


******************************************************************************



 NODE   VOLTAGE     NODE   VOLTAGE     NODE   VOLTAGE     NODE   VOLTAGE


(  OUT)  -16.9890  (  VCC)   17.0000  ( -VCC)  -17.0000  ( REF1)    2.2932      

( REF2)   10.2070  (N00075)     .6232 (N00177)    9.9737 (N00390)    9.9702     

(N00477)    6.3838 (N00618)    6.3814 (N00681)   13.6580 (N00786)    3.1244     

(N01788)  -16.9890 (N01792)   17.0000 (N02007)  -16.9890 (N02701)    2.2941     

(N03121)   10.2100 (N12559)    4.0000 (X_U4A.x_lm358.6)    1.4942               

(X_U4A.x_lm358.7)  -19.0200           (X_U4A.x_lm358.8)  -19.0200               

(X_U4A.x_lm358.9)    0.0000           (X_U4A.x_lm358.a)     .0406               

(X_U4A.x_lm358.b)  -16.9590           (X_U4B.x_lm358.6)    -.0026               

(X_U4B.x_lm358.7)   13.8630           (X_U4B.x_lm358.8)   13.8630               

(X_U4B.x_lm358.9)    0.0000           (X_U4B.x_lm358.a)   16.9960               

(X_U4B.x_lm358.b)    -.0041           (X_U5A.x_lm358.6)    -.0019               

(X_U5A.x_lm358.7)   10.1490           (X_U5A.x_lm358.8)   10.1490               

(X_U5A.x_lm358.9)    0.0000           (X_U5A.x_lm358.a)   16.9960               

(X_U5A.x_lm358.b)    -.0036           (X_U5B.x_lm358.6)    -.0020               

(X_U5B.x_lm358.7)   10.5610           (X_U5B.x_lm358.8)   10.5610               

(X_U5B.x_lm358.9)    0.0000           (X_U5B.x_lm358.a)   16.9930               

(X_U5B.x_lm358.b)    -.0071           (X_U6A.x_lm358.6)-373.7E-06               

(X_U6A.x_lm358.7)    2.0888           (X_U6A.x_lm358.8)    2.0888               

(X_U6A.x_lm358.9)    0.0000           (X_U6A.x_lm358.a)     .0041               

(X_U6A.x_lm358.b)  -16.9960           (X_U4A.x_lm358.10)    3.7630              

(X_U4A.x_lm358.11)  -17.0000          (X_U4A.x_lm358.12)  -16.9220              

(X_U4A.x_lm358.13)    3.7630          (X_U4A.x_lm358.14)    3.7357              

(X_U4A.x_lm358.53)   15.5000          (X_U4A.x_lm358.54)  -16.1780              

(X_U4A.x_lm358.90)  -40.6100          (X_U4A.x_lm358.91)   40.0000              

(X_U4A.x_lm358.92)  -40.0000          (X_U4A.x_lm358.99)    0.0000              

(X_U4B.x_lm358.10)    6.9890          (X_U4B.x_lm358.11)  -16.9600              

(X_U4B.x_lm358.12)  -16.9630          (X_U4B.x_lm358.13)    6.9751              

(X_U4B.x_lm358.14)    6.9759          (X_U4B.x_lm358.53)   15.5000              

(X_U4B.x_lm358.54)  -16.1780          (X_U4B.x_lm358.90)    4.0882              

(X_U4B.x_lm358.91)   40.0000          (X_U4B.x_lm358.92)  -40.0000              

(X_U4B.x_lm358.99)    0.0000          (X_U5A.x_lm358.10)   10.5780              

(X_U5A.x_lm358.11)  -16.9610          (X_U5A.x_lm358.12)  -16.9640              

(X_U5A.x_lm358.13)   10.5640          (X_U5A.x_lm358.14)   10.5650              

(X_U5A.x_lm358.53)   15.5000          (X_U5A.x_lm358.54)  -16.1780              

(X_U5A.x_lm358.90)    3.5863          (X_U5A.x_lm358.91)   40.0000              

(X_U5A.x_lm358.92)  -40.0000          (X_U5A.x_lm358.99)    0.0000              

(X_U5B.x_lm358.10)   10.8140          (X_U5B.x_lm358.11)  -16.9610              

(X_U5B.x_lm358.12)  -16.9640          (X_U5B.x_lm358.13)   10.8000              

(X_U5B.x_lm358.14)   10.8010          (X_U5B.x_lm358.53)   15.5000              

(X_U5B.x_lm358.54)  -16.1780          (X_U5B.x_lm358.90)    7.0821              

(X_U5B.x_lm358.91)   40.0000          (X_U5B.x_lm358.92)  -40.0000              

(X_U5B.x_lm358.99)    0.0000          (X_U6A.x_lm358.10)    2.9009              

(X_U6A.x_lm358.11)  -16.9600          (X_U6A.x_lm358.12)  -16.9610              

(X_U6A.x_lm358.13)    2.8870          (X_U6A.x_lm358.14)    2.8873              

(X_U6A.x_lm358.53)   15.5000          (X_U6A.x_lm358.54)  -16.1780              

(X_U6A.x_lm358.90)   -4.0883          (X_U6A.x_lm358.91)   40.0000              

(X_U6A.x_lm358.92)  -40.0000          (X_U6A.x_lm358.99)    0.0000          




    VOLTAGE SOURCE CURRENTS
    NAME         CURRENT

    V_V1        -5.937E-02
    V_V2         2.997E-02
    V_V3        -2.212E-01
    X_U4A.x_lm358.vb   1.494E-05
    X_U4A.x_lm358.vc   3.249E-11
    X_U4A.x_lm358.ve  -3.353E-02
    X_U4A.x_lm358.vlim  -4.061E-02
    X_U4A.x_lm358.vlp  -8.061E-11
    X_U4A.x_lm358.vln   1.414E-05
    X_U4B.x_lm358.vb  -2.633E-08
    X_U4B.x_lm358.vc   1.842E-12
    X_U4B.x_lm358.ve   3.205E-11
    X_U4B.x_lm358.vlim   4.088E-03
    X_U4B.x_lm358.vlp  -3.591E-11
    X_U4B.x_lm358.vln  -4.409E-11
    X_U5A.x_lm358.vb  -1.931E-08
    X_U5A.x_lm358.vc   5.531E-12
    X_U5A.x_lm358.ve   2.836E-11
    X_U5A.x_lm358.vlim   3.586E-03
    X_U5A.x_lm358.vlp  -3.641E-11
    X_U5A.x_lm358.vln  -4.359E-11
    X_U5B.x_lm358.vb  -2.025E-08
    X_U5B.x_lm358.vc   5.294E-12
    X_U5B.x_lm358.ve   2.860E-11
    X_U5B.x_lm358.vlim   7.082E-03
    X_U5B.x_lm358.vlp  -3.292E-11
    X_U5B.x_lm358.vln  -4.709E-11
    X_U6A.x_lm358.vb  -3.737E-09
    X_U6A.x_lm358.vc   1.321E-11
    X_U6A.x_lm358.ve   2.069E-11
    X_U6A.x_lm358.vlim  -4.088E-03
    X_U6A.x_lm358.vlp  -4.409E-11
    X_U6A.x_lm358.vln  -3.592E-11

    TOTAL POWER DISSIPATION   2.43E+00  WATTS



          JOB CONCLUDED

**** 05/22/23 16:17:11 **** PSpice 22.1.0 (9 December 2022) *** ID# 0 ********

 ** Profile: "SCHEMATIC1-tranzi"  [ C:\Miruna\PROIECT_ORCAD\Proiect-PSpiceFiles\SCHEMATIC1\tranzi.sim ] 


 ****     JOB STATISTICS SUMMARY

 ****     CURRENT STEP                     PARAM R =   15.0000E+03


******************************************************************************



  License check-out time            =       39.00
  Total job time (using Solver 1)   =       16.72
